 
    CNRS - NERC - Met OFFICE - MERCATOR-ocean - INGV - CMCC
                        NEMO team
             Ocean General Circulation Model
                 NEMO version 3.7  (2016) 
 
 
  mynode : mpi initialisation                                                   
                                          
  ~~~~~~                                                                        
                                          
     Namelist nammpp                                                            
                                          
        mpi send type          cn_mpi_send = I                                  
                                          
        size exported buffer   nn_buffer   =            0  bytes                
                                          
        processor grid extent in i         jpni =           11                  
                                          
        processor grid extent in j         jpnj =            8                  
                                          
        number of local domains           jpnij =           88                  
                                          
        avoid use of mpi_allgather at the north fold  ln_nnogather =  F         
                                          
             Immediate non-blocking send (isend)                                
                                          
 
 
  domain_cfg : domain size read in domain_cfg file                              
                                          
  ~~~~~~~~~~                                                                    
                                          
     cn_cfg = UNKNOWN   nn_cfg =     -9999999                                   
                                          
     jpiglo =          154                                                      
                                          
     jpjglo =          254                                                      
                                          
     jpkglo =           75                                                      
                                          
     type of global domain lateral boundary   jperio =            0             
                                          

AAAAAAAA

 
 nemo_ctl: Control prints
 ~~~~~~~ 
    Namelist namctl
       run control (for debugging)     ln_ctl     =  F
       level of print                  nn_print   =            0
       Start i indice for SUM control  nn_ictls   =            0
       End i indice for SUM control    nn_ictle   =            0
       Start j indice for SUM control  nn_jctls   =            0
       End j indice for SUM control    nn_jctle   =            0
       number of proc. following i     nn_isplt   =            1
       number of proc. following j     nn_jsplt   =            1
       timing activated    (0/1)       nn_timing  =            1
 
 namcfg : configuration initialization through namelist read
 ~~~~~~ 
    Namelist namcfg
       read domain configuration file                ln_read_cfg      =  T
          filename to be read                           cn_domcfg     = 
 domain_cfg
       write configuration definition file           ln_write_cfg     =  F
          filename to be written                        cn_domcfg_out = 
 domain_cfg_out
       use file attribute if exists as i/p j-start   ln_use_jattr     =  F
 
 mpp_init : Message Passing MPI
 ~~~~~~~~
 
    defines mpp subdomains
       jpni=          11  iresti=           9
       jpnj=           8  irestj=           4
 
       sum ilcit(i,1)=   154.000000000000       jpiglo=         154
       sum ilcit(1,j)=   254.000000000000       jpjglo=         254
 
     ****************************************************************
     *              *               *               *               *   
   8 *   16  x 33   *    16  x 33   *    16  x 33   *    16  x 33   *   
     *         77   *          78   *          79   *          80   *         
     *              *               *               *               *   
     ****************************************************************
     *              *               *               *               *   
   7 *   16  x 33   *    16  x 33   *    16  x 33   *    16  x 33   *   
     *         66   *          67   *          68   *          69   *         
     *              *               *               *               *   
     ****************************************************************
     *              *               *               *               *   
   6 *   16  x 33   *    16  x 33   *    16  x 33   *    16  x 33   *   
     *         55   *          56   *          57   *          58   *         
     *              *               *               *               *   
     ****************************************************************
     *              *               *               *               *   
   5 *   16  x 33   *    16  x 33   *    16  x 33   *    16  x 33   *   
     *         44   *          45   *          46   *          47   *         
     *              *               *               *               *   
     ****************************************************************
     *              *               *               *               *   
   4 *   16  x 34   *    16  x 34   *    16  x 34   *    16  x 34   *   
     *         33   *          34   *          35   *          36   *         
     *              *               *               *               *   
     ****************************************************************
     *              *               *               *               *   
   3 *   16  x 34   *    16  x 34   *    16  x 34   *    16  x 34   *   
     *         22   *          23   *          24   *          25   *         
     *              *               *               *               *   
     ****************************************************************
     *              *               *               *               *   
   2 *   16  x 34   *    16  x 34   *    16  x 34   *    16  x 34   *   
     *         11   *          12   *          13   *          14   *         
     *              *               *               *               *   
     ****************************************************************
     *              *               *               *               *   
   1 *   16  x 34   *    16  x 34   *    16  x 34   *    16  x 34   *   
     *          0   *           1   *           2   *           3   *         
     *              *               *               *               *   
     ****************************************************************
             1               2               3               4             
 
     ****************************************************************
     *              *               *               *               *   
   8 *   16  x 33   *    16  x 33   *    16  x 33   *    16  x 33   *   
     *         81   *          82   *          83   *          84   *         
     *              *               *               *               *   
     ****************************************************************
     *              *               *               *               *   
   7 *   16  x 33   *    16  x 33   *    16  x 33   *    16  x 33   *   
     *         70   *          71   *          72   *          73   *         
     *              *               *               *               *   
     ****************************************************************
     *              *               *               *               *   
   6 *   16  x 33   *    16  x 33   *    16  x 33   *    16  x 33   *   
     *         59   *          60   *          61   *          62   *         
     *              *               *               *               *   
     ****************************************************************
     *              *               *               *               *   
   5 *   16  x 33   *    16  x 33   *    16  x 33   *    16  x 33   *   
     *         48   *          49   *          50   *          51   *         
     *              *               *               *               *   
     ****************************************************************
     *              *               *               *               *   
   4 *   16  x 34   *    16  x 34   *    16  x 34   *    16  x 34   *   
     *         37   *          38   *          39   *          40   *         
     *              *               *               *               *   
     ****************************************************************
     *              *               *               *               *   
   3 *   16  x 34   *    16  x 34   *    16  x 34   *    16  x 34   *   
     *         26   *          27   *          28   *          29   *         
     *              *               *               *               *   
     ****************************************************************
     *              *               *               *               *   
   2 *   16  x 34   *    16  x 34   *    16  x 34   *    16  x 34   *   
     *         15   *          16   *          17   *          18   *         
     *              *               *               *               *   
     ****************************************************************
     *              *               *               *               *   
   1 *   16  x 34   *    16  x 34   *    16  x 34   *    16  x 34   *   
     *          4   *           5   *           6   *           7   *         
     *              *               *               *               *   
     ****************************************************************
             5               6               7               8             
 
     ************************************************
     *              *               *               *   
   8 *   16  x 33   *    15  x 33   *    15  x 33   *   
     *         85   *          86   *          87   *         
     *              *               *               *   
     ************************************************
     *              *               *               *   
   7 *   16  x 33   *    15  x 33   *    15  x 33   *   
     *         74   *          75   *          76   *         
     *              *               *               *   
     ************************************************
     *              *               *               *   
   6 *   16  x 33   *    15  x 33   *    15  x 33   *   
     *         63   *          64   *          65   *         
     *              *               *               *   
     ************************************************
     *              *               *               *   
   5 *   16  x 33   *    15  x 33   *    15  x 33   *   
     *         52   *          53   *          54   *         
     *              *               *               *   
     ************************************************
     *              *               *               *   
   4 *   16  x 34   *    15  x 34   *    15  x 34   *   
     *         41   *          42   *          43   *         
     *              *               *               *   
     ************************************************
     *              *               *               *   
   3 *   16  x 34   *    15  x 34   *    15  x 34   *   
     *         30   *          31   *          32   *         
     *              *               *               *   
     ************************************************
     *              *               *               *   
   2 *   16  x 34   *    15  x 34   *    15  x 34   *   
     *         19   *          20   *          21   *         
     *              *               *               *   
     ************************************************
     *              *               *               *   
   1 *   16  x 34   *    15  x 34   *    15  x 34   *   
     *          8   *           9   *          10   *         
     *              *               *               *   
     ************************************************
             9              10              11             
       nproc  =            0
       nowe   =           -1       noea   =             1
       nono   =           11       noso   =           -11
       nbondi =           -1       nbondj =           -1
       npolj  =            0
       nperio =            0
       nlci   =           16       nlcj   =           34
       nimpp  =            1       njmpp  =            1
       nreci  =            2       npse   =          -10
       nrecj  =            2       npsw   =          -12
       jpreci =            1       npne   =           12
       jprecj =            1       npnw   =           10
 
 
 mpp_init_ioipsl :   iloc  =           16          34
 ~~~~~~~~~~~~~~~     iabsf =            1           1
                     ihals =            0           0
                     ihale =            1           1
      file   : 
 timing.output                                                                  
   open ok
      unit   =           20
      status = REPLACE
      form   = FORMATTED
      access = SEQUENTIAL
 
 
 phy_cst : initialization of ocean parameters and constants
 ~~~~~~~
 
        Constants
 
           mathematical constant                 rpi =    3.14159265358979     
 
           day                                rday   =    86400.0000000000      
  s
           sideral year                       rsiyea =    31558149.0101107      
  s
           sideral day                        rsiday =    86164.0996559118      
  s
           omega                              omega  =   7.292115083046062E-005 
  s^-1
 
           nb of months per year               raamo =    12.0000000000000      
  months
           nb of hours per day                 rjjhh =    24.0000000000000      
  hours
           nb of minutes per hour              rhhmm =    60.0000000000000      
  mn
           nb of seconds per minute            rmmss =    60.0000000000000      
  s
 
           earth radius                         ra   =    6371229.00000000      
  m
           gravity                              grav =    9.80665000000000      
  m/s^2
 
           triple point of temperature      rtt      =    273.160000000000      
  K
           freezing point of water          rt0      =    273.150000000000      
  K
           melting point of snow            rt0_snow =    273.150000000000      
  K
           melting point of ice             rt0_ice  =    273.050000000000      
  K
           reference density and heat capacity now defined in eosbn2.f90
 
           thermal conductivity of pure ice          =    2.03439600000000      
  J/s/m/K
           fresh ice specific heat                   =    2093.00000000000      
  J/kg/K
           latent heat of fusion of fresh ice / snow =    333700.000000000      
  J/kg
           density times specific heat for snow      =    690690.000000000      
  J/m^3/K
           density times specific heat for ice       =    1883700.00000000      
  J/m^3/K
           volumetric latent heat fusion of sea ice  =    300330000.000000      
  J/m
           latent heat of sublimation of snow        =    2800000.00000000      
  J/kg
           volumetric latent heat fusion of snow     =    110121000.000000      
  J/m^3
           density of sea ice                        =    900.000000000000      
  kg/m^3
           density of snow                           =    330.000000000000      
  kg/m^3
           emissivity of snow or ice                 =   0.970000000000000     
           salinity of ice                           =    6.00000000000000      
  psu
           salinity of sea                           =    34.7000000000000      
  psu
           latent heat of evaporation (water)        =    2500000.00000000      
  J/m^3
           correction factor for solar radiation     =   0.900000000000000     
           von Karman constant                       =   0.400000000000000     
           Stefan-Boltzmann constant                 =   5.670000000000000E-008 
  J/s/m^2/K^4
 
           conversion: degre ==> radian          rad =   1.745329251994330E-002
 
           smallest real computer value       rsmall =   1.110223024625157E-016
 
 eos_init : equation of state
 ~~~~~~~~
    Namelist nameos : Chosen the Equation Of Seawater (EOS)
       TEOS-10 : rho=F(Conservative Temperature, Absolute  Salinity, depth)   ln
 _TEOS10 =  F
       EOS-80  : rho=F(Potential    Temperature, Practical Salinity, depth)   ln
 _EOS80  =  T
       S-EOS   : rho=F(Conservative Temperature, Absolute  Salinity, depth)   ln
 _SEOS   =  F
 
           use of EOS-80 equation of state (pot. temp. and pract. salinity)
              model does not use Conservative Temperature
 
           volumic mass of reference           rau0  =    1026.00000000000      
  kg/m^3
           1. / rau0                        r1_rau0  =   9.746588693957114E-004 
  m^3/kg
           ocean specific heat                 rcp   =    3991.86795711963      
  J/Kelvin
           rau0 * rcp                       rau0_rcp =    4095656.52400474     
           1. / ( rau0 * rcp )           r1_rau0_rcp =   2.441610994816036E-007
 
 wad_init : Wetting and drying initialization through namelist read
 ~~~~~~~~
    Namelist namwad
       Logical activation                 ln_wd      =  F
       Minimum wet depth on dried cells rn_wdmin1    =   0.100000000000000     
       Tolerance of min wet depth     rn_wdmin2      =   1.000000000000000E-002
       land elevation threshold         rn_wdld      =    20.0000000000000     
       Max iteration for W/D limiter    nn_wdit      =           10
 
 dom_init : domain initialization
 ~~~~~~~~
    Domain info
       dimension of model:
              Local domain      Global domain       Data domain 
               jpi     :      16   jpiglo  :     154
               jpj     :      34   jpjglo  :     254
               jpk     :      75   jpkglo  :      75
               jpij    :     544
       mpp local domain info (mpp):
               jpni    :           11    jpreci  :            1
               jpnj    :            8    jprecj  :            1
               jpnij   :           88
       lateral boundary of the Global domain : jperio  =            0
          (i.e. closed)
       Ocean model configuration used:
               cn_cfg = 
 UNKNOWN                                                                        
                                                                                
                                                                                
                    
               nn_cfg =     -9999999
 
 dom_glo : domain: global <<==>> local 
 ~~~~~~~ 
    global domain:   jpiglo =          154  jpjglo =          254  jpkglo = 
          75
    local  domain:   jpi    =           16  jpj    =           34  jpk    = 
          75
 
    conversion from local to global domain indices (and vise versa) done
 
 dom_nam  : domain initialization through namelist read
 ~~~~~~~ 
    Namelist namrun
       job number                      nn_no      =            0
       experiment name for output      cn_exp     = 
 SANH                                                                           
                                                                                
                                                                                
                    
       file prefix restart input       cn_ocerst_in= 
 SANH_00087600_restart                                                          
                                                                                
                                                                                
                    
       restart input directory         cn_ocerst_indir= 
 ./restarts                                                                     
                                                                                
                                                                                
                    
       file prefix restart output      cn_ocerst_out= 
 restart                                                                        
                                                                                
                                                                                
                    
       restart output directory        cn_ocerst_outdir= 
 ./restarts                                                                     
                                                                                
                                                                                
                    
       restart logical                 ln_rstart  =  F
       start with forward time step    nn_euler   =            1
       control of time step            nn_rstctl  =            2
       number of the first time step   nn_it000   =            1
       number of the last time step    nn_itend   =        87600
       initial calendar date aammjj    nn_date0   =     20170101
       initial time of day in hhmm     nn_time0   =            0
       leap year calendar (0/1)        nn_leapy   =            1
       initial state output            nn_istate  =            0
       frequency of restart file       nn_stock   =        87600
       frequency of output file        nn_write   =        87600
       mask land points                ln_mskland =  F
       additional CF standard metadata ln_cfmeta  =  F
       overwrite an existing file      ln_clobber =  T
       NetCDF chunksize (bytes)        nn_chunksz =            0
       IS coupling at the restart step ln_iscpl   =  F

 ===>>> : W A R N I N G
         ===============

  ln_rstart =.FALSE., nn_euler is forced to 0                                   
                                                                                
                                                                                
                    
    The IOIPSL calendar is "gregorian", i.e. leap year
 
    Namelist namdom : space & time domain
       linear free surface (=T)              ln_linssh  =  F
       suppression of closed seas (=0)       nn_closea  =            0
       create mesh/mask file(s)              nn_msh     =            0
            = 0   no file created           
            = 1   mesh_mask                 
            = 2   mesh and mask             
            = 3   mesh_hgr, msh_zgr and mask
       treshold to open the isf cavity       rn_isfhmin = 
   1.00000000000000       (m)
       ocean time step                       rn_rdt     = 
   360.000000000000     
       asselin time filter parameter         rn_atfp    = 
  0.100000000000000     
       online coarsening of dynamical fields ln_crs     =  F
 
 dom_clo : closed seas 
 ~~~~~~~
    No closed seas or lakes in the configuration 
 
 dom_hgr : define the horizontal mesh from ithe following par_oce parameters 
 ~~~~~~~   
    namcfg : read (=T) or user defined (=F) configuration    ln_read_cfg  =  T
 
           read horizontal mesh in domain_cfg file
 
 hgr_read : read the horizontal coordinates in mesh_mask
 ~~~~~~~~      jpiglo =          154  jpjglo =          254  jpk =           75
                     iom_nf90_open ~~~ open existing file: domain_cfg.nc in READ
  mode
                    ---> domain_cfg.nc OK
           read glamt (rec:      1) in domain_cfg.nc ok
           read glamu (rec:      1) in domain_cfg.nc ok
           read glamv (rec:      1) in domain_cfg.nc ok
           read glamf (rec:      1) in domain_cfg.nc ok
           read gphit (rec:      1) in domain_cfg.nc ok
           read gphiu (rec:      1) in domain_cfg.nc ok
           read gphiv (rec:      1) in domain_cfg.nc ok
           read gphif (rec:      1) in domain_cfg.nc ok
           read e1t (rec:      1) in domain_cfg.nc ok
           read e1u (rec:      1) in domain_cfg.nc ok
           read e1v (rec:      1) in domain_cfg.nc ok
           read e1f (rec:      1) in domain_cfg.nc ok
           read e2t (rec:      1) in domain_cfg.nc ok
           read e2u (rec:      1) in domain_cfg.nc ok
           read e2v (rec:      1) in domain_cfg.nc ok
           read e2f (rec:      1) in domain_cfg.nc ok
            Coriolis factor at f- and t-points read in domain_cfg file
           read ff_f (rec:      1) in domain_cfg.nc ok
           read ff_t (rec:      1) in domain_cfg.nc ok
                     iom_close ~~~ close file: domain_cfg.nc ok
           Coriolis parameter have been read in domain_cfg file
           u- & v-surfaces calculated as e1 e2 product
 
 dom_zgr : vertical coordinate
 ~~~~~~~
 
           Read vertical mesh in domain_cfg file
 
    zgr_read : read the vertical coordinates in domain_cfg file
    ~~~~~~~~
                     iom_nf90_open ~~~ open existing file: domain_cfg.nc in READ
  mode
                    ---> domain_cfg.nc OK
           read e3t_1d (rec:      1) in domain_cfg.nc ok
           read e3w_1d (rec:      1) in domain_cfg.nc ok
           read e3t_0 (rec:      1) in domain_cfg.nc ok
           read e3u_0 (rec:      1) in domain_cfg.nc ok
           read e3v_0 (rec:      1) in domain_cfg.nc ok
           read e3f_0 (rec:      1) in domain_cfg.nc ok
           read e3w_0 (rec:      1) in domain_cfg.nc ok
           read e3uw_0 (rec:      1) in domain_cfg.nc ok
           read e3vw_0 (rec:      1) in domain_cfg.nc ok
 
               Reference 1D z-coordinate depth and scale factors:
          level  gdept_1d  gdepw_1d  e3t_1d   e3w_1d  
             1     0.51     0.00     1.02     1.01
             2     1.56     1.02     1.08     1.05
             3     2.67     2.10     1.15     1.11
             4     3.86     3.25     1.23     1.19
             5     5.14     4.49     1.34     1.28
             6     6.54     5.83     1.47     1.40
             7     8.09     7.30     1.64     1.55
             8     9.82     8.93     1.84     1.73
             9    11.77    10.77     2.08     1.95
            10    13.99    12.85     2.37     2.22
            11    16.53    15.22     2.71     2.53
            12    19.43    17.93     3.11     2.90
            13    22.76    21.04     3.56     3.33
            14    26.56    24.60     4.05     3.80
            15    30.87    28.65     4.59     4.32
            16    35.74    33.24     5.15     4.87
            17    41.18    38.39     5.73     5.44
            18    47.21    44.12     6.33     6.03
            19    53.85    50.45     6.95     6.64
            20    61.11    57.40     7.58     7.26
            21    69.02    64.98     8.24     7.91
            22    77.61    73.23     8.95     8.59
            23    86.93    82.18     9.71     9.32
            24    97.04    91.88    10.54    10.11
            25   108.03   102.42    11.47    10.99
            26   120.00   113.89    12.51    11.97
            27   133.08   126.39    13.68    13.08
            28   147.41   140.07    15.02    14.33
            29   163.16   155.10    16.55    15.76
            30   180.55   171.64    18.28    17.39
            31   199.79   189.92    20.26    19.24
            32   221.14   210.18    22.51    21.35
            33   244.89   232.70    25.07    23.75
            34   271.36   257.76    27.95    26.47
            35   300.89   285.72    31.20    29.53
            36   333.86   316.92    34.85    32.98
            37   370.69   351.77    38.91    36.83
            38   411.79   390.68    43.41    41.11
            39   457.63   434.09    48.37    45.83
            40   508.64   482.46    53.78    51.01
            41   565.29   536.23    59.64    56.65
            42   628.03   595.87    65.93    62.73
            43   697.26   661.81    72.63    69.23
            44   773.37   734.43    79.67    76.11
            45   856.68   814.11    87.01    83.31
            46   947.45   901.12    94.57    90.77
            47  1045.85   995.69   102.27    98.41
            48  1151.99  1097.95   110.01   106.14
            49  1265.86  1207.96   117.71   113.87
            50  1387.38  1325.67   125.28   121.52
            51  1516.36  1450.95   132.63   128.99
            52  1652.57  1583.58   139.70   136.20
            53  1795.67  1723.28   146.41   143.10
            54  1945.30  1869.69   152.73   149.62
            55  2101.03  2022.42   158.62   155.73
            56  2262.42  2181.04   164.06   161.40
            57  2429.03  2345.10   169.04   166.60
            58  2600.38  2514.14   173.56   171.36
            59  2776.04  2687.70   177.65   175.66
            60  2955.57  2865.35   181.31   179.53
            61  3138.56  3046.66   184.58   182.99
            62  3324.64  3231.24   187.48   186.08
            63  3513.45  3418.72   190.05   188.80
            64  3704.66  3608.77   192.30   191.21
            65  3897.98  3801.07   194.28   193.33
            66  4093.16  3995.35   196.01   195.18
            67  4289.95  4191.37   197.52   196.79
            68  4488.15  4388.89   198.84   198.20
            69  4687.58  4587.73   199.98   199.43
            70  4888.07  4787.70   200.97   200.49
            71  5089.48  4988.67   201.82   201.41
            72  5291.68  5190.49   202.56   202.20
            73  5494.58  5393.05   203.20   202.89
            74  5698.06  5596.25   203.75   203.49
            75  5902.06  5800.00   203.75   204.00
           read top_level (rec:      1) in domain_cfg.nc ok
           read bottom_level (rec:      1) in domain_cfg.nc ok
                     iom_close ~~~ close file: domain_cfg.nc ok
 
    Type of vertical coordinate (read in domain_cfg
  file or set in userdef_nam) :
       z-coordinate - full steps      ln_zco    =  F
       z-coordinate - partial steps   ln_zps    =  F
       s- or hybrid z-s-coordinate    ln_sco    =  T
       ice shelf cavities             ln_isfcav =  F
 
     zgr_top_bot : ocean top and bottom k-index of T-, U-, V- and W-levels 
     ~~~~~~~~~~~
 
 dommsk : ocean mask 
 ~~~~~~
    Namelist namlbc
       lateral momentum boundary cond.    rn_shlat  =   0.000000000000000E+000
       consistency with analytical form   ln_vorlat =  F
    ocean lateral  free-slip 
 
 usr_def_fmask : NO alteration of fmask in specific straits 
 ~~~~~~~~~~~~~
 
 dom_vvl_init : Variable volume activated
 ~~~~~~~~~~~~
 
 dom_vvl_ctl : choice/control of the variable vertical coordinate
 ~~~~~~~~~~~
            Namelist nam_vvl : chose a vertical coordinate
               zstar                      ln_vvl_zstar   =  T
               ztilde                     ln_vvl_ztilde  =  F
               layer                      ln_vvl_layer   =  F
               ztilde as zstar   ln_vvl_ztilde_as_zstar  =  F
       ztilde near the equator    ln_vvl_zstar_at_eqtor  =  F
            Namelist nam_vvl : thickness diffusion coefficient
                                          rn_ahe3        = 
  0.000000000000000E+000
            Namelist nam_vvl : maximum e3t deformation fractional change
                                          rn_zdef_max    = 
  0.900000000000000     
            Namelist nam_vvl : z-tilde to zstar restoration timescale (days)
                                          rn_rst_e3t     = 
   30.0000000000000     
            Namelist nam_vvl : z-tilde cutoff frequency of low-pass filter (days
 )
                                          rn_lf_cutoff   = 
   5.00000000000000     
            Namelist nam_vvl : debug prints
                                          ln_vvl_dbg     =  T
 
               zstar vertical coordinate is used
 
 dom_ctl : extrema of the masked scale factors
 ~~~~~~~
              e1t maxi:    9237.01 at i =     2 j=     2
              e1t mini:    8586.01 at i =   135 j=   219
              e2t maxi:    9237.01 at i =     2 j=     2
              e2t mini:    8556.83 at i =   135 j=   219
 
 dom_init : end of domain initialization nn_msh=           0
 
 
 istate_init : Initialization of the dynamics and tracers
 ~~~~~~~~~~~
 
 dta_tsd_init : Temperature & Salinity data 
 ~~~~~~~~~~~~ 
    Namelist namtsd
       Initialisation of ocean T & S with T &S input data   ln_tsd_init   =  T
       iInterpolation of initial conditions in the vertical ln_tsd_interp =  T
       damping of ocean T & S toward T &S input data        ln_tsd_tradmp =  F
 
                     iom_nf90_open ~~~ open existing file: ../../../INPUTS/ICS/i
 nitcd_depth.nc in READ mode
                    ---> ../../../INPUTS/ICS/initcd_depth.nc OK
 Dimension of veritcal coordinate in ICs:           75
                     iom_close ~~~ close file: ../../../INPUTS/ICS/initcd_depth.
 nc ok
 
    fld_fill : fill data structure with information from namelist namtsd
    ~~~~~~~~
       list of files and frequency (>0: in hours ; <0 in months)
       root filename: 
 ../../../INPUTS/ICS/votemper_CMEMS-GLOBAL_REANALYSIS_PHY-001_030-SANH_2017.nc
    variable name: votemper
          frequency:   -12.0000000000000         time interp:  F    climatology:
   T
          weights:    pairing:    data type: yearly     land/sea mask:
       root filename: 
 ../../../INPUTS/ICS/vosaline_CMEMS-GLOBAL_REANALYSIS_PHY-001_030-SANH_2017.nc
    variable name: vosaline
          frequency:   -12.0000000000000         time interp:  F    climatology:
   T
          weights:    pairing:    data type: yearly     land/sea mask:
       root filename: ../../../INPUTS/ICS/initcd_depth.nc   variable name: 
 gdept_4D
          frequency:   -12.0000000000000         time interp:  F    climatology:
   T
          weights:    pairing:    data type: yearly     land/sea mask:
       root filename: ../../../INPUTS/ICS/initcd_mask.nc   variable name: mask
          frequency:   -12.0000000000000         time interp:  F    climatology:
   T
          weights:    pairing:    data type: yearly     land/sea mask:
  *** Info used values : 
    date ndastp                                      :     20170100
    number of elapsed days since the begining of run :   0.000000000000000E+000
    nn_time0                                         :            0
 
 =======>> 1/2 time step before the start of the run DATE Y/M/D =   2016/12/31  nsec_day:   86220  nsec_week:  518220                     nsec_month: 2678220  nsec_year:31622220
======>> time-step =       1      New day, DATE Y/M/D = 2017/01/01      nday_year = 001
         nsec_year =      180   nsec_month =     180   nsec_day =   180
   nsec_week =   518580
                     iom_nf90_open ~~~ open existing file: ../../../INPUTS/ICS/v
 otemper_CMEMS-GLOBAL_REANALYSIS_PHY-001_030-SANH_2017.nc in READ mode
                    ---> ../../../INPUTS/ICS/votemper_CMEMS-GLOBAL_REANALYSIS_PH
 Y-001_030-SANH_2017.nc OK
           read votemper (rec:      1) in ../../../INPUTS/ICS/votemper_CMEMS-GLOBAL_REANALYSIS_PHY-001_030-SANH_2017.nc ok
                     iom_nf90_open ~~~ open existing file: ../../../INPUTS/ICS/v
 osaline_CMEMS-GLOBAL_REANALYSIS_PHY-001_030-SANH_2017.nc in READ mode
                    ---> ../../../INPUTS/ICS/vosaline_CMEMS-GLOBAL_REANALYSIS_PH
 Y-001_030-SANH_2017.nc OK
           read vosaline (rec:      1) in ../../../INPUTS/ICS/vosaline_CMEMS-GLOBAL_REANALYSIS_PHY-001_030-SANH_2017.nc ok
                     iom_nf90_open ~~~ open existing file: ../../../INPUTS/ICS/i
 nitcd_depth.nc in READ mode
                    ---> ../../../INPUTS/ICS/initcd_depth.nc OK
           read gdept_4D (rec:      1) in ../../../INPUTS/ICS/initcd_depth.nc ok
                     iom_nf90_open ~~~ open existing file: ../../../INPUTS/ICS/i
 nitcd_mask.nc in READ mode
                    ---> ../../../INPUTS/ICS/initcd_mask.nc OK
           read mask (rec:      1) in ../../../INPUTS/ICS/initcd_mask.nc ok
   fld_read: var votemper kt =        1 (   0.0021 days), Y/M/D = 2017/01/01, record:   0001 (days    0.0000 <->  365.0000)
   fld_read: var vosaline kt =        1 (   0.0021 days), Y/M/D = 2017/01/01, record:   0001 (days    0.0000 <->  365.0000)
   fld_read: var gdept_4D kt =        1 (   0.0021 days), Y/M/D = 2017/01/01, record:   0001 (days    0.0000 <->  365.0000)
   fld_read: var mask kt =        1 (   0.0021 days), Y/M/D = 2017/01/01, record:   0001 (days    0.0000 <->  365.0000)
 
 dta_tsd: interpolates T & S data onto current mesh
 dta_tsd: deallocte T & S arrays as they are only use to initialize the run
 
 tide_init : Initialization of the tidal components
 ~~~~~~~~~ 
    Namelist nam_tide
               Use tidal components : ln_tide      =  T
       Apply astronomical potential : ln_tide_pot  =  T
                                      ln_tide_ramp =  F
                                      dn_love_number =   0.690000000000000     
                                      nb_harmo     =           34
 
 sbc_init : surface boundary condition setting
 ~~~~~~~~ 
    Namelist namsbc (partly overwritten with CPP key setting)
       frequency update of sbc (and ice)             nn_fsbc       = 
           1
       Type of air-sea fluxes : 
          user defined formulation                   ln_usr        =  F
          flux         formulation                   ln_flx        =  F
          bulk         formulation                   ln_blk        =  T
       Type of coupling (Ocean/Ice/Atmosphere) : 
          ocean-atmosphere coupled formulation       ln_cpl        =  F
          mixed forced-coupled     formulation       ln_mixcpl     =  F
          OASIS coupling (with atm or sas)           lk_oasis      =  F
          components of your executable              nn_components = 
           0
          Multicategory heat flux formulation (LIM3) nn_limflx     = 
          -1
       Sea-ice : 
          ice management in the sbc (=0/1/2/3)       nn_ice        = 
           0
          ice-ocean embedded/levitating (=0/1/2)     nn_ice_embd   = 
           1
       Misc. options of sbc : 
          Light penetration in temperature Eq.       ln_traqsr     =  F
             daily mean to diurnal cycle qsr            ln_dm2dc   =  F
          Sea Surface Restoring on SST and/or SSS    ln_ssr        =  F
          FreshWater Budget control  (=0/1/2)        nn_fwb        = 
           0
          Patm gradient added in ocean & ice Eqs.    ln_apr_dyn    =  F
          runoff / runoff mouths                     ln_rnf        =  T
          iceshelf formulation                       ln_isf        =  F
          closed sea (=0/1) (set in namdom)          nn_closea     = 
           0
          nb of iterations if land-sea-mask applied  nn_lsm        = 
           0
          surface wave                               ln_wave       =  F
                Stokes drift corr. to vert. velocity ln_sdw        =  F
                wave modified ocean stress           ln_tauoc      =  F
                Stokes coriolis term                 ln_stcor      =  F
                neutral drag coefficient (CORE, MFS) ln_cdgw       =  F
 
    NEMO configured as a single executable (i.e. including both OPA and Surface 
 module
 
       ===>>   bulk formulation
 
 sbc_ssm_init : sea surface mean fields, nn_fsbc=1 : instantaneous values
 ~~~~~~~~~~~ 
    default initialisation of ss._m arrays
 
 sbc_blk_init : surface boundary condition -- bulk formulae
 ~~~~~~~~~~~~
    fld_fill : fill data structure with information from namelist namsbc_blk
    ~~~~~~~~
       list of files and frequency (>0: in hours ; <0 in months)
       root filename: ../../../INPUTS/FORCING/ERA5_U10   variable name: U10
          frequency:    1.00000000000000         time interp:  T    climatology:
   F
          weights: ../../../INPUTS/FORCING/weights_era5_SANH_bicubic.nc
    pairing: Uwnd   data type: yearly     land/sea mask:
 ../../../INPUTS/FORCING/ERA5_LSM
       root filename: ../../../INPUTS/FORCING/ERA5_V10   variable name: V10
          frequency:    1.00000000000000         time interp:  T    climatology:
   F
          weights: ../../../INPUTS/FORCING/weights_era5_SANH_bicubic.nc
    pairing: Vwnd   data type: yearly     land/sea mask:
 ../../../INPUTS/FORCING/ERA5_LSM
       root filename: ../../../INPUTS/FORCING/ERA5_T2M   variable name: T2M
          frequency:    1.00000000000000         time interp:  T    climatology:
   F
          weights: ../../../INPUTS/FORCING/weights_era5_SANH_bilin.nc
    pairing:    data type: yearly     land/sea mask:
 ../../../INPUTS/FORCING/ERA5_LSM
       root filename: ../../../INPUTS/FORCING/ERA5_SPH   variable name: SPH
          frequency:    1.00000000000000         time interp:  T    climatology:
   F
          weights: ../../../INPUTS/FORCING/weights_era5_SANH_bilin.nc
    pairing:    data type: yearly     land/sea mask:
 ../../../INPUTS/FORCING/ERA5_LSM
       root filename: ../../../INPUTS/FORCING/ERA5_MSDWSWRF   variable name: 
 MSDWSWRF
          frequency:    1.00000000000000         time interp:  T    climatology:
   F
          weights: ../../../INPUTS/FORCING/weights_era5_SANH_bilin.nc
    pairing:    data type: yearly     land/sea mask:
 ../../../INPUTS/FORCING/ERA5_LSM
       root filename: ../../../INPUTS/FORCING/ERA5_MSDWLWRF   variable name: 
 MSDWLWRF
          frequency:    1.00000000000000         time interp:  T    climatology:
   F
          weights: ../../../INPUTS/FORCING/weights_era5_SANH_bilin.nc
    pairing:    data type: yearly     land/sea mask:
 ../../../INPUTS/FORCING/ERA5_LSM
       root filename: ../../../INPUTS/FORCING/ERA5_MTPR   variable name: MTPR
          frequency:    1.00000000000000         time interp:  T    climatology:
   F
          weights: ../../../INPUTS/FORCING/weights_era5_SANH_bilin.nc
    pairing:    data type: yearly     land/sea mask:
 ../../../INPUTS/FORCING/ERA5_LSM
       root filename: ../../../INPUTS/FORCING/ERA5_MSR   variable name: MSR
          frequency:    1.00000000000000         time interp:  T    climatology:
   F
          weights: ../../../INPUTS/FORCING/weights_era5_SANH_bilin.nc
    pairing:    data type: yearly     land/sea mask:
 ../../../INPUTS/FORCING/ERA5_LSM
       root filename: ../../../INPUTS/FORCING/ERA5_MSL   variable name: MSL
          frequency:    1.00000000000000         time interp:  T    climatology:
   F
          weights: ../../../INPUTS/FORCING/weights_era5_SANH_bilin.nc
    pairing:    data type: yearly     land/sea mask:
 
    Namelist namsbc_blk (other than data information):
       "NCAR"      algorithm   (Large and Yeager 2008)     ln_NCAR      =  F
       "COARE 3.0" algorithm   (Fairall et al. 2003)       ln_COARE_3p0 =  F
       "COARE 3.5" algorithm   (Edson et al. 2013)         ln_COARE_3p5 =  F
       "ECMWF"     algorithm   (IFS cycle 31)              ln_ECMWF     =  T
       add High freq.contribution to the stress module     ln_taudif    =  F
       Air temperature and humidity reference height (m)   rn_zqt       = 
   2.00000000000000     
       Wind vector reference height (m)                    rn_zu        = 
   10.0000000000000     
       factor applied on precipitation (total & snow)      rn_pfac      = 
   1.00000000000000     
       factor applied on evaporation                       rn_efac      = 
   1.00000000000000     
       factor applied on ocean/ice velocity                rn_vfac      = 
  0.000000000000000E+000
          (form absolute (=0) to relative winds(=1))
 
       ===>>   "ECMWF" algorithm       (IFS cycle 31)
 
 sbc_rnf_init : runoff 
 ~~~~~~~~~~~~ 
    Namelist namsbc_rnf
       specific river mouths treatment            ln_rnf_mouth =  F
       river mouth additional Kz                  rn_avt_rnf   = 
  1.000000000000000E-003
       depth of river mouth additional mixing     rn_hrnf      = 
   15.0000000000000     
       multiplicative factor for runoff           rn_rfact     = 
   1.00000000000000     
 
           runoffs inflow read in a file
 
    fld_fill : fill data structure with information from namelist namsbc_rnf
    ~~~~~~~~
       list of files and frequency (>0: in hours ; <0 in months)
       root filename: ../../../INPUTS/RIVERS/rivers_clim_v2.nc   variable name: 
 rorunoff
          frequency:   -1.00000000000000         time interp:  T    climatology:
   T
          weights:    pairing:    data type: yearly     land/sea mask:
 
           No specific treatment at river mouths
 
 bdy_init : open boundaries not used (ln_bdy = F)
 ~~~~~~~~
 
 zdf_init : vertical physics
 ~~~~~~~~
    Namelist namzdf : set vertical mixing mixing parameters
       vertical eddy viscosity             rn_avm0   =   1.200000000000000E-006
       vertical eddy diffusivity           rn_avt0   =   1.200000000000000E-006
       constant background or profile      nn_avb    =            0
       horizontal variation for avtb       nn_havtb  =            0
       time splitting / backward scheme    ln_zdfexp =  F
       number of time step                 nn_zdfexp =            3
       enhanced vertical diffusion         ln_zdfevd =  F
          applied on momentum (=1/0)       nn_evdm   =            1
       vertical coefficient for evd        rn_avevd  =    100.000000000000     
       non-penetrative convection (npc)    ln_zdfnpc =  F
       npc call  frequency                 nn_npc    =            1
       npc print frequency                 nn_npcp   =          365
       Qiao formulation flag               ln_zdfqiao= F
 
    vertical mixing option :
       GLS dependent eddy coefficients
 
    convection :
       use the GLS closure scheme
 
 zdf_bfr_init : momentum bottom friction
 ~~~~~~~~~~~~
    Namelist nam_bfr : set bottom friction parameters
       quadratic bottom friction
       friction coef.   rn_bfri2  =   2.500000000000000E-003
       Max. coef. (log case)   rn_bfri2_max  =   0.100000000000000     
       background tke   rn_bfeb2  =   0.000000000000000E+000
       log formulation   ln_bfr2d =  F
       bottom roughness  rn_bfrz0 [m] =   3.000000000000000E-003
       implicit bottom friction switch                ln_bfrimp  =  T
 
 zdf_gls_init : gls turbulent closure scheme
 ~~~~~~~~~~~~
    Namelist namzdf_gls : set gls mixing parameters
       minimum value of en                           rn_emin        = 
  1.000000000000000E-006
       minimum value of eps                          rn_epsmin      = 
  1.000000000000000E-012
       Limit dissipation rate under stable stratif.  ln_length_lim  =  T
       Galperin limit (Standard: 0.53, Holt: 0.26)   rn_clim_galp   = 
  0.267000000000000     
       TKE Surface boundary condition                nn_bc_surf     = 
           1
       TKE Bottom boundary condition                 nn_bc_bot      = 
           1
       Modify psi Schmidt number (wb case)           ln_sigpsi      =  T
       Craig and Banner coefficient                  rn_crban       = 
   100.000000000000     
       Charnock coefficient                          rn_charn       = 
   70000.0000000000     
       Surface roughness formula                     nn_z0_met      = 
           2
       Wave height frac. (used if nn_z0_met=2)       rn_frac_hs     = 
   1.30000000000000     
       Stability functions                           nn_stab_func   = 
           2
       Type of closure                               nn_clos        = 
           1
       Surface roughness (m)                         rn_hsro        = 
  2.000000000000000E-002
       Bottom roughness (m) (nambfr namelist)        rn_bfrz0       = 
  3.000000000000000E-003
 The choosen closure is k-eps
 Stability functions from Canuto A
 
 Limit values
 ~~~~~~~~~~~~
 Parameter  m =    1.50000000000000     
 Parameter  n =   -1.00000000000000     
 Parameter  p =    3.00000000000000     
 rpsi1   =    1.44000000000000     
 rpsi2   =    1.92000000000000     
 rpsi3m  =  -0.629000000000000     
 rpsi3p  =    1.00000000000000     
 rsc_tke =    1.00000000000000     
 rsc_psi =    1.20000000000000     
 rsc_psi0 =    2.00617283950617     
 rc0     =   0.526800000000000     
 
 Shear free turbulence parameters:
 rcm_sf  =   0.731000000000000     
 ra_sf   =   -1.50000000000000     
 rl_sf   =   0.243429424509090     
 
  ===>>>> : Initialisation of en and mxln by background values
 
 ldf_tra_init : lateral tracer physics
 ~~~~~~~~~~~~ 
    Namelist namtra_ldf : lateral mixing parameters (type, direction, coefficien
 ts)
       type :
          laplacian operator                      ln_traldf_lap   =  T
          bilaplacian operator                    ln_traldf_blp   =  F
       direction of action :
          iso-level                               ln_traldf_lev   =  F
          horizontal (geopotential)               ln_traldf_hor   =  T
          iso-neutral Madec operator              ln_traldf_iso   =  F
          iso-neutral triad operator              ln_traldf_triad =  F
             iso-neutral (Method of Stab. Corr.)  ln_traldf_msc   =  F
             maximum isoppycnal slope             rn_slpmax       = 
  1.000000000000000E-002
             pure lateral mixing in ML            ln_triad_iso    =  F
             switching triad or not               rn_sw_triad     = 
   1.00000000000000     
             lateral mixing on bottom             ln_botmix_triad =  F
       coefficients :
          lateral eddy diffusivity   (lap case)   rn_aht_0        = 
   125.000000000000     
          lateral eddy diffusivity (bilap case)   rn_bht_0        = 
   1000000000000.00     
          type of time-space variation            nn_aht_ijk_t    =            0
           tracer mixing coef. = constant =    125.000000000000     
 
 ldf_eiv_init : eddy induced velocity parametrization
 ~~~~~~~~~~~~ 
    Namelist namtra_ldfeiv : 
       Eddy Induced Velocity (eiv) param.      ln_ldfeiv     =  F
       eiv streamfunction & velocity diag.     ln_ldfeiv_dia =  F
       eddy induced velocity coef.             rn_aeiv_0     = 
   2000.00000000000     
       type of time-space variation            nn_aei_ijk_t  =           21
 
    eddy induced velocity param is NOT used neither diagnosed
 
 ldf_dyn : lateral momentum physics
 ~~~~~~~
    Namelist namdyn_ldf : set lateral mixing parameters
       type :
          laplacian operator                   ln_dynldf_lap =  F
          bilaplacian operator                 ln_dynldf_blp =  T
       direction of action :
          iso-level                            ln_dynldf_lev =  T
          horizontal (geopotential)            ln_dynldf_hor =  F
          iso-neutral                          ln_dynldf_iso =  F
       coefficients :
          type of time-space variation         nn_ahm_ijk_t  =            0
          lateral laplacian eddy viscosity     rn_ahm_0      = 
   60.0000000000000       m2/s
          background viscosity (iso case)      rn_ahm_b      = 
  0.000000000000000E+000  m2/s
          lateral bilaplacian eddy viscosity   rn_bhm_0      = 
  -12500000000.0000       m4/s
       smagorinsky settings (nn_ahm_ijk_t  = 32) :
          Smagorinsky coefficient              rn_csmc       = 
   3.50000000000000     
          factor multiplier for theorectical lower limit for 
            Smagorinsky eddy visc (def. 1.0)   rn_minfac    = 
   1.00000000000000     
          factor multiplier for theorectical lower upper for 
            Smagorinsky eddy visc (def. 1.0)   rn_maxfac    = 
   1.00000000000000     
           momentum mixing coef. = constant 
 
 tra_qsr_init : penetration of the surface solar radiation
 ~~~~~~~~~~~~
    Namelist namtra_qsr : set the parameter of penetration
       RGB (Red-Green-Blue) light penetration       ln_qsr_rgb =  F
       2 band               light penetration       ln_qsr_2bd =  T
       bio-model            light penetration       ln_qsr_bio =  F
       light penetration for ice-model (LIM3)       ln_qsr_ice =  F
       RGB : Chl data (=1) or cst value (=0)        nn_chldta  =            0
       RGB & 2 bands: fraction of light (rn_si1)    rn_abs     = 
  0.580000000000000     
       RGB & 2 bands: shortess depth of extinction  rn_si0     = 
  0.350000000000000     
       2 bands: longest depth of extinction         rn_si1     = 
   23.0000000000000     
 
    2 bands light penetration
         level of light extinction =           32  ref depth = 
   232.696972713581       m
 
 tra_bbc : Bottom Boundary Condition (bbc), apply a Geothermal heating
 ~~~~~~~   
    Namelist nambbc : set bbc parameters
       Apply a geothermal heating at ocean bottom   ln_trabbc     =  F
       type of geothermal flux                      nn_geoflx     =            2
       Constant geothermal flux value               rn_geoflx_cst = 
  8.640000000000000E-002
 
       *** no geothermal heat flux
 
 tra_dmp_init : T and S newtonian relaxation
 ~~~~~~~~~~~~
    Namelist namtra_dmp : set relaxation parameters
       Apply relaxation   or not       ln_tradmp =  F
       mixed layer damping option      nn_zdmp   =            0
       Damping file name               cn_resto  = 
 resto.nc                                                                       
                                                                                
                                           
 
 
 tra_adv_init : choice/control of the tracer advection scheme
 ~~~~~~~~~~~
    Namelist namtra_adv : chose a advection scheme for tracers
       centered scheme                           ln_traadv_cen =  F
             horizontal 2nd/4th order               nn_cen_h   =            2
             vertical   2nd/4th order               nn_cen_v   =            2
       Flux Corrected Transport scheme           ln_traadv_fct =  T
             horizontal 2nd/4th order               nn_fct_h   =            2
             vertical   2nd/4th order               nn_fct_v   =            2
             2nd order + vertical sub-timestepping  nn_fct_zts =            0
       MUSCL scheme                              ln_traadv_mus =  F
             + upstream scheme near river mouths    ln_mus_ups =  F
       UBS scheme                                ln_traadv_ubs =  F
             vertical   2nd/4th order               nn_ubs_v   =            2
       QUICKEST scheme                           ln_traadv_qck =  F
 
       ===>>   FCT      scheme is used. Horizontal order:            2 
  Vertical   order:            2
 
 tra_adv_mle_init : mixed layer eddy (MLE) advection acting on tracers
 ~~~~~~~~~~~~~~~~
    Namelist namtra_adv_mle : mixed layer eddy advection on tracers
       use mixed layer eddy (MLE, i.e. Fox-Kemper param) (T/F)      ln_mle    = 
 F
       MLE type: =0 standard Fox-Kemper ; =1 new formulation        nn_mle    = 
           1
       magnitude of the MLE (typical value: 0.06 to 0.08)           rn_ce     = 
  6.000000000000000E-002
       scale of ML front (ML radius of deformation) (rn_mle=0)      rn_lf     = 
   5000.00000000000      m
       maximum time scale of MLE                    (rn_mle=0)      rn_time   = 
   172800.000000000      s
       reference latitude (degrees) of MLE coef.    (rn_mle=1)      rn_lat    = 
   20.0000000000000      deg
       space interp. of MLD at u-(v-)pts (0=min,1=averaged,2=max)   nn_mld_uv = 
           0
       =1 no MLE in case of convection ; =0 always MLE              nn_conv   = 
           0
       Density difference used to define ML for FK              rn_rho_c_mle  = 
  1.000000000000000E-002
 
       ===>>   Mixed Layer Eddy parametrisation NOT used
 
 tra_ldf_init : lateral tracer diffusive operator
 ~~~~~~~~~~~~
    Namelist namtra_ldf: already read in ldftra module
       see ldf_tra_init report for lateral mixing parameters
 
       ===>>   Rotated laplacian operator (standard)
 
 tra_zdf_init : vertical tracer physics scheme
 ~~~~~~~~~~~
       ===>>   Implicit (euler backward) scheme
 
 dyn_adv_init : choice/control of the momentum advection scheme
 ~~~~~~~~~~~~
    Namelist namdyn_adv : chose a advection formulation & scheme for momentum
       Vector/flux form (T/F)                           ln_dynadv_vec  =  T
       = 0 standard scheme  ; =1 Hollingsworth scheme   nn_dynkeg      = 
           0
       2nd order centred advection scheme               ln_dynadv_cen2 =  F
       3rd order UBS advection scheme                   ln_dynadv_ubs  =  F
       Sub timestepping of vertical advection           ln_dynzad_zts  =  F
 
       ===>>   vector form : keg + zad + vor is used
               with Centered standard keg scheme
 
 dyn_vor_init : vorticity term : read namelist and control the consistency
 ~~~~~~~~~~~~
    Namelist namdyn_vor : choice of the vorticity term scheme
       energy    conserving scheme                    ln_dynvor_ene =  F
       enstrophy conserving scheme                    ln_dynvor_ens =  F
       mixed enstrophy/energy conserving scheme       ln_dynvor_mix =  F
       enstrophy and energy conserving scheme         ln_dynvor_een =  T
          e3f = averaging /4 (=0) or /sum(tmask) (=1)    nn_een_e3f = 
           1
       masked (=T) or unmasked(=F) vorticity          ln_dynvor_msk =  F
 
       change fmask value in the angles (T)           ln_vorlat =  F
 
       ===>>   Vector form advection : vorticity = Coriolis + relative vorticity
 
       ===>>   energy and enstrophy conserving scheme
 
 dyn_ldf_init : Choice of the lateral diffusive operator on dynamics
 ~~~~~~~~~~~~
    Namelist nam_dynldf : set lateral mixing parameters (type, direction, coeffi
 cients)
       laplacian operator          ln_dynldf_lap =  F
       bilaplacian operator        ln_dynldf_blp =  T
       iso-level                   ln_dynldf_lev =  T
       horizontal (geopotential)   ln_dynldf_hor =  F
       iso-neutral                 ln_dynldf_iso =  F
 
       ===>>   iso-level bi-laplacian operator
 
 dyn_hpg_init : hydrostatic pressure gradient initialisation
 ~~~~~~~~~~~~
    Namelist namdyn_hpg : choice of hpg scheme
       z-coord. - full steps                             ln_hpg_zco    =  F
       z-coord. - partial steps (interpolation)          ln_hpg_zps    =  F
       s-coord. (standard jacobian formulation)          ln_hpg_sco    =  F
       s-coord. (standard jacobian formulation) for isf  ln_hpg_isf    =  F
       s-coord. (Density Jacobian: Cubic polynomial)     ln_hpg_djc    =  F
       s-coord. (Pressure Jacobian: Cubic polynomial)    ln_hpg_prj    =  T
 
 dyn_zdf_init : vertical dynamics physics scheme
 ~~~~~~~~~~~
       ===>>   Implicit (euler backward) scheme
 
 dyn_spg_init : choice of the surface pressure gradient scheme
 ~~~~~~~~~~~
      Explicit free surface                  ln_dynspg_exp =  F
      Free surface with time splitting       ln_dynspg_ts  =  T
      Limit velocities                       ln_ulimit     =  T
      Limit velocities      max inverse Courant number     = 
  0.900000000000000     
      Limit velocities   multiplier for divergant flow     = 
  0.540000000000000     
 
       ===>>   free surface with time splitting scheme
 
 dyn_spg_ts : split-explicit free surface
 ~~~~~~~~~~
      ln_ts_auto=.true. Automatically set nn_baro 
      Max. courant number allowed:   0.500000000000000     
      ln_bt_av=.true.  => Time averaging over nn_baro time steps is on 
      ln_bt_fw=.true.  => Forward integration of barotropic variables 
      Time filter choice, nn_bt_flt:            1
            Boxcar: width = nn_baro
  
      nn_baro =           24
      Barotropic time step [s] is :   15.0000000000000     
      Maximum Courant number is   :  0.483569791472037     
 
 ldf_slp_init : direction of lateral mixing
 ~~~~~~~~~~~~
               Madec operator initialisation
 
 icbini : Namelist namberg ln_icebergs = F , NO icebergs used
 ~~~~~~ 
 
 sto_par_init : stochastic parameterization
 ~~~~~~~~~~~~
    Namelist namsto : stochastic parameterization
       restart stochastic parameters           ln_rststo     =  F
       read seed of RNG from restart file      ln_rstseed    =  T
       suffix of sto restart name (input)      cn_storst_in  = 
 restart_sto                     
       suffix of sto restart name (output)     cn_storst_out = 
 restart_sto                     
       stochastic equation of state            ln_sto_eos    =  F
       number of degrees of freedom            nn_sto_eos    =            1
       random walk horz. std (in grid points)  rn_eos_stdxy  = 
   1.40000000000000     
       random walk vert. std (in grid points)  rn_eos_stdz   = 
  0.700000000000000     
       random walk tcor (in timesteps)         rn_eos_tcor   = 
   1440.00000000000     
       order of autoregressive  processes      nn_eos_ord    =            1
       passes of Laplacian filter              nn_eos_flt    =            0
       limitation factor                       rn_eos_lim    = 
   2.00000000000000     
 
    stochastic parameterization :
 
 dia_ptr_init : poleward transport and msf initialization
 ~~~~~~~~~~~~
    Namelist namptr : set ptr parameters
       Poleward heat & salt transport (T) or not (F)      ln_diaptr  =  F
       Global (F) or glo/Atl/Pac/Ind/Indo-Pac basins      ln_subbas  =  F
 
 dia_hsb_init
 ~~~~~~~~ 
   check the heat and salt budgets (T) or not (F)       ln_diahsb =  F
 
 trd_init : Momentum/Tracers trends
 ~~~~~~~~
    Namelist namtrd : set trends parameters
       global domain averaged dyn & tra trends   ln_glo_trd  =  F
       U & V trends: 3D output                   ln_dyn_trd  =  F
       U & V trends: Mixed Layer averaged        ln_dyn_mxl  =  F
       T & S trends: 3D output                   ln_tra_trd  =  F
       T & S trends: Mixed Layer averaged        ln_tra_mxl  =  F
       Kinetic   Energy trends                   ln_KE_trd   =  F
       Potential Energy trends                   ln_PE_trd   =  F
       Barotropic vorticity trends               ln_vor_trd  =  F
       frequency of trends diagnostics (glo)     nn_trd      =          365

 ===>>> : W A R N I N G
         ===============

  ln_diaobs is set to false so not calling dia_obs
 Euler time step switch is            0
 
 dia_tmb_init : Output Top, Middle, Bottom Diagnostics
 ~~~~~~~~~~~~
 Namelist nam_diatmb : set tmb outputs 
 Switch for TMB diagnostics (T) or not (F)  ln_diatmb  =  F
 
 dia_25h_init : Output 25 hour mean diagnostics
 ~~~~~~~~~~~~
 Namelist nam_dia25h : set 25h outputs 
 Switch for 25h diagnostics (T) or not (F)  ln_dia25h  =  F

AAAAAAAA

 
 sbc_tide : Update of the components and (re)Init. the potential at kt=
           1
 ~~~~~~~~ 
 2N2   -12.5812855694886        1.03460485552440       -4.10736826587700     
  1.352404965560946E-004
 EPS2  -12.5812855694886        1.03460485552440      -0.802181029097529     
  1.329544978086985E-004
 J1   -0.112131274911307       0.847761030230049        11.0595211559928     
  7.556036155658642E-005
 K1   -7.248586890694672E-002  0.894770073516508        6.48554757312079     
  7.292115854679635E-005
 K2   -0.132287512692390       0.766604910410480        16.1126877998314     
  1.458423170935927E-004
 L2    -12.5812855694886        1.07260629336848        12.7561451363288     
  1.431581055854647E-004
 LA2   -12.5812855694886        1.03460485552440        4.87698431667730     
  1.428049013230707E-004
 M2    -12.5812855694886        1.03460485552440        5.04057889986698     
  1.405189025756747E-004
 M3    -18.8719283542329        1.05238146304642        7.56086834980047     
  2.107783538635120E-004
 M4    -25.1625711389772        1.07040720707467        10.0811577997340     
  2.810378051513493E-004
 M6    -37.7438567084659        1.10744849382778        15.1217366996009     
  4.215567077270240E-004
 M8    -50.3251422779545        1.14577158895741        20.1623155994679     
  5.620756103026987E-004
 MF     12.3570230196660       0.661639378599251        11.0721088999644     
  5.323414517918015E-006
 MKS2  -12.7135730821810       0.793133162579534        14.8439014537389     
  1.409171153364066E-004
 MM    0.000000000000000E+000   1.11981671524339        4.57397358287199     
  2.639203009790057E-006
 MN4   -25.1625711389772        1.07040720707467        5.50718421686197     
  2.783986021415593E-004
 MS4   -12.5812855694886        1.03460485552440        11.3499441458265     
  2.859630069085355E-004
 MSF    12.5812855694886        1.03460485552440        1.26878634609252     
  4.925201757186120E-006
 MSQM   12.3570230196660       0.661639378599251        12.3408952460569     
  1.024861627510414E-005
 MTM    12.3570230196660       0.661639378599251        15.6460824828364     
  7.962617527708072E-006
 MU2   -12.5812855694886        1.03460485552440        3.77179255377446     
  1.355937008184885E-004
 N2    -12.5812855694886        1.03460485552440       0.466605316994990     
  1.378796995658846E-004
 N4    -25.1625711389772        1.07040720707467       0.933210633989979     
  2.757593991317693E-004
 NU2   -12.5812855694886        1.03460485552440        8.34576613664646     
  1.382329038282786E-004
 O1    -12.4691542945773       0.827510066424597       -1.44496867325381     
  6.759774402887834E-005
 P1    0.000000000000000E+000   1.00000000000000      -0.176182327161289     
  7.252294578606445E-005
 Q1    -12.4691542945773       0.827510066424597       -6.01894225612580     
  6.495854101908828E-005
 R2    -12.3570230196660        1.00000000000000        9.40928665913324     
  1.456432012051323E-004
 S1    0.000000000000000E+000   1.00000000000000        3.15468262297975     
  7.272205216643040E-005
 S2    0.000000000000000E+000   1.00000000000000        6.30936524595950     
  1.454441043328608E-004
 S4    0.000000000000000E+000   1.00000000000000        12.6187304919190     
  2.908882086657216E-004
 SA    0.000000000000000E+000   1.00000000000000        4.90166127693594     
  1.991063803659477E-007
 SSA   0.000000000000000E+000   1.00000000000000        9.80332255387187     
  3.982127607318954E-007
 T2    0.000000000000000E+000   1.00000000000000        6.35103648637556     
  1.452450074605893E-004

 ===>>> : W A R N I N G
         ===============

 previous year/month/week/day file: ../../../INPUTS/FORCING/ERA5_U10 not present
  -> back to current year/month/week/day
                     iom_nf90_open ~~~ open existing file: ../../../INPUTS/FORCI
 NG/ERA5_U10_y2017.nc in READ mode
                    ---> ../../../INPUTS/FORCING/ERA5_U10_y2017.nc OK
                     iom_nf90_open ~~~ open existing file: ../../../INPUTS/FORCI
 NG/ERA5_U10_y2017.nc in READ mode
                    ---> ../../../INPUTS/FORCING/ERA5_U10_y2017.nc OK
                     iom_close ~~~ close file: ../../../INPUTS/FORCING/ERA5_U10_
 y2017.nc ok
                     iom_nf90_open ~~~ open existing file: ../../../INPUTS/FORCI
 NG/weights_era5_SANH_bicubic.nc in READ mode
                    ---> ../../../INPUTS/FORCING/weights_era5_SANH_bicubic.nc OK
           read src01 (rec:      1) in ../../../INPUTS/FORCING/weights_era5_SANH_bicubic.nc ok
           read src02 (rec:      1) in ../../../INPUTS/FORCING/weights_era5_SANH_bicubic.nc ok
           read src03 (rec:      1) in ../../../INPUTS/FORCING/weights_era5_SANH_bicubic.nc ok
           read src04 (rec:      1) in ../../../INPUTS/FORCING/weights_era5_SANH_bicubic.nc ok
           read wgt01 (rec:      1) in ../../../INPUTS/FORCING/weights_era5_SANH_bicubic.nc ok
           read wgt02 (rec:      1) in ../../../INPUTS/FORCING/weights_era5_SANH_bicubic.nc ok
           read wgt03 (rec:      1) in ../../../INPUTS/FORCING/weights_era5_SANH_bicubic.nc ok
           read wgt04 (rec:      1) in ../../../INPUTS/FORCING/weights_era5_SANH_bicubic.nc ok
           read wgt05 (rec:      1) in ../../../INPUTS/FORCING/weights_era5_SANH_bicubic.nc ok
           read wgt06 (rec:      1) in ../../../INPUTS/FORCING/weights_era5_SANH_bicubic.nc ok
           read wgt07 (rec:      1) in ../../../INPUTS/FORCING/weights_era5_SANH_bicubic.nc ok
           read wgt08 (rec:      1) in ../../../INPUTS/FORCING/weights_era5_SANH_bicubic.nc ok
           read wgt09 (rec:      1) in ../../../INPUTS/FORCING/weights_era5_SANH_bicubic.nc ok
           read wgt10 (rec:      1) in ../../../INPUTS/FORCING/weights_era5_SANH_bicubic.nc ok
           read wgt11 (rec:      1) in ../../../INPUTS/FORCING/weights_era5_SANH_bicubic.nc ok
           read wgt12 (rec:      1) in ../../../INPUTS/FORCING/weights_era5_SANH_bicubic.nc ok
           read wgt13 (rec:      1) in ../../../INPUTS/FORCING/weights_era5_SANH_bicubic.nc ok
           read wgt14 (rec:      1) in ../../../INPUTS/FORCING/weights_era5_SANH_bicubic.nc ok
           read wgt15 (rec:      1) in ../../../INPUTS/FORCING/weights_era5_SANH_bicubic.nc ok
           read wgt16 (rec:      1) in ../../../INPUTS/FORCING/weights_era5_SANH_bicubic.nc ok
                     iom_close ~~~ close file: ../../../INPUTS/FORCING/weights_e
 ra5_SANH_bicubic.nc ok
           read U10 (rec:      1) in ../../../INPUTS/FORCING/ERA5_U10_y2017.nc ok
                     iom_nf90_open ~~~ open existing file: ../../../INPUTS/FORCI
 NG/ERA5_LSM.nc in READ mode
                    ---> ../../../INPUTS/FORCING/ERA5_LSM.nc OK
           read LSM (rec:      1) in ../../../INPUTS/FORCING/ERA5_LSM.nc ok
                     iom_close ~~~ close file: ../../../INPUTS/FORCING/ERA5_LSM.
 nc ok
   fld_init : time-interpolation for U10 read previous record =      1 at time =   -0.02 days

 ===>>> : W A R N I N G
         ===============

 previous year/month/week/day file: ../../../INPUTS/FORCING/ERA5_V10 not present
  -> back to current year/month/week/day
                     iom_nf90_open ~~~ open existing file: ../../../INPUTS/FORCI
 NG/ERA5_V10_y2017.nc in READ mode
                    ---> ../../../INPUTS/FORCING/ERA5_V10_y2017.nc OK
           read V10 (rec:      1) in ../../../INPUTS/FORCING/ERA5_V10_y2017.nc ok
                     iom_nf90_open ~~~ open existing file: ../../../INPUTS/FORCI
 NG/ERA5_LSM.nc in READ mode
                    ---> ../../../INPUTS/FORCING/ERA5_LSM.nc OK
           read LSM (rec:      1) in ../../../INPUTS/FORCING/ERA5_LSM.nc ok
                     iom_close ~~~ close file: ../../../INPUTS/FORCING/ERA5_LSM.
 nc ok
   fld_init : time-interpolation for V10 read previous record =      1 at time =   -0.02 days

 ===>>> : W A R N I N G
         ===============

 previous year/month/week/day file: ../../../INPUTS/FORCING/ERA5_T2M not present
  -> back to current year/month/week/day
                     iom_nf90_open ~~~ open existing file: ../../../INPUTS/FORCI
 NG/ERA5_T2M_y2017.nc in READ mode
                    ---> ../../../INPUTS/FORCING/ERA5_T2M_y2017.nc OK
                     iom_nf90_open ~~~ open existing file: ../../../INPUTS/FORCI
 NG/ERA5_T2M_y2017.nc in READ mode
                    ---> ../../../INPUTS/FORCING/ERA5_T2M_y2017.nc OK
                     iom_close ~~~ close file: ../../../INPUTS/FORCING/ERA5_T2M_
 y2017.nc ok
                     iom_nf90_open ~~~ open existing file: ../../../INPUTS/FORCI
 NG/weights_era5_SANH_bilin.nc in READ mode
                    ---> ../../../INPUTS/FORCING/weights_era5_SANH_bilin.nc OK
           read src01 (rec:      1) in ../../../INPUTS/FORCING/weights_era5_SANH_bilin.nc ok
           read src02 (rec:      1) in ../../../INPUTS/FORCING/weights_era5_SANH_bilin.nc ok
           read src03 (rec:      1) in ../../../INPUTS/FORCING/weights_era5_SANH_bilin.nc ok
           read src04 (rec:      1) in ../../../INPUTS/FORCING/weights_era5_SANH_bilin.nc ok
           read wgt01 (rec:      1) in ../../../INPUTS/FORCING/weights_era5_SANH_bilin.nc ok
           read wgt02 (rec:      1) in ../../../INPUTS/FORCING/weights_era5_SANH_bilin.nc ok
           read wgt03 (rec:      1) in ../../../INPUTS/FORCING/weights_era5_SANH_bilin.nc ok
           read wgt04 (rec:      1) in ../../../INPUTS/FORCING/weights_era5_SANH_bilin.nc ok
                     iom_close ~~~ close file: ../../../INPUTS/FORCING/weights_e
 ra5_SANH_bilin.nc ok
           read T2M (rec:      1) in ../../../INPUTS/FORCING/ERA5_T2M_y2017.nc ok
                     iom_nf90_open ~~~ open existing file: ../../../INPUTS/FORCI
 NG/ERA5_LSM.nc in READ mode
                    ---> ../../../INPUTS/FORCING/ERA5_LSM.nc OK
           read LSM (rec:      1) in ../../../INPUTS/FORCING/ERA5_LSM.nc ok
                     iom_close ~~~ close file: ../../../INPUTS/FORCING/ERA5_LSM.
 nc ok
   fld_init : time-interpolation for T2M read previous record =      1 at time =   -0.02 days

 ===>>> : W A R N I N G
         ===============

 previous year/month/week/day file: ../../../INPUTS/FORCING/ERA5_SPH not present
  -> back to current year/month/week/day
                     iom_nf90_open ~~~ open existing file: ../../../INPUTS/FORCI
 NG/ERA5_SPH_y2017.nc in READ mode
                    ---> ../../../INPUTS/FORCING/ERA5_SPH_y2017.nc OK
           read SPH (rec:      1) in ../../../INPUTS/FORCING/ERA5_SPH_y2017.nc ok
                     iom_nf90_open ~~~ open existing file: ../../../INPUTS/FORCI
 NG/ERA5_LSM.nc in READ mode
                    ---> ../../../INPUTS/FORCING/ERA5_LSM.nc OK
           read LSM (rec:      1) in ../../../INPUTS/FORCING/ERA5_LSM.nc ok
                     iom_close ~~~ close file: ../../../INPUTS/FORCING/ERA5_LSM.
 nc ok
   fld_init : time-interpolation for SPH read previous record =      1 at time =   -0.02 days

 ===>>> : W A R N I N G
         ===============

 previous year/month/week/day file: ../../../INPUTS/FORCING/ERA5_MSDWSWRF not pr
 esent -> back to current year/month/week/day
                     iom_nf90_open ~~~ open existing file: ../../../INPUTS/FORCI
 NG/ERA5_MSDWSWRF_y2017.nc in READ mode
                    ---> ../../../INPUTS/FORCING/ERA5_MSDWSWRF_y2017.nc OK
           read MSDWSWRF (rec:      1) in ../../../INPUTS/FORCING/ERA5_MSDWSWRF_y2017.nc ok
                     iom_nf90_open ~~~ open existing file: ../../../INPUTS/FORCI
 NG/ERA5_LSM.nc in READ mode
                    ---> ../../../INPUTS/FORCING/ERA5_LSM.nc OK
           read LSM (rec:      1) in ../../../INPUTS/FORCING/ERA5_LSM.nc ok
                     iom_close ~~~ close file: ../../../INPUTS/FORCING/ERA5_LSM.
 nc ok
   fld_init : time-interpolation for MSDWSWRF read previous record =      1 at time =   -0.02 days

 ===>>> : W A R N I N G
         ===============

 previous year/month/week/day file: ../../../INPUTS/FORCING/ERA5_MSDWLWRF not pr
 esent -> back to current year/month/week/day
                     iom_nf90_open ~~~ open existing file: ../../../INPUTS/FORCI
 NG/ERA5_MSDWLWRF_y2017.nc in READ mode
                    ---> ../../../INPUTS/FORCING/ERA5_MSDWLWRF_y2017.nc OK
           read MSDWLWRF (rec:      1) in ../../../INPUTS/FORCING/ERA5_MSDWLWRF_y2017.nc ok
                     iom_nf90_open ~~~ open existing file: ../../../INPUTS/FORCI
 NG/ERA5_LSM.nc in READ mode
                    ---> ../../../INPUTS/FORCING/ERA5_LSM.nc OK
           read LSM (rec:      1) in ../../../INPUTS/FORCING/ERA5_LSM.nc ok
                     iom_close ~~~ close file: ../../../INPUTS/FORCING/ERA5_LSM.
 nc ok
   fld_init : time-interpolation for MSDWLWRF read previous record =      1 at time =   -0.02 days

 ===>>> : W A R N I N G
         ===============

 previous year/month/week/day file: ../../../INPUTS/FORCING/ERA5_MTPR not presen
 t -> back to current year/month/week/day
                     iom_nf90_open ~~~ open existing file: ../../../INPUTS/FORCI
 NG/ERA5_MTPR_y2017.nc in READ mode
                    ---> ../../../INPUTS/FORCING/ERA5_MTPR_y2017.nc OK
           read MTPR (rec:      1) in ../../../INPUTS/FORCING/ERA5_MTPR_y2017.nc ok
                     iom_nf90_open ~~~ open existing file: ../../../INPUTS/FORCI
 NG/ERA5_LSM.nc in READ mode
                    ---> ../../../INPUTS/FORCING/ERA5_LSM.nc OK
           read LSM (rec:      1) in ../../../INPUTS/FORCING/ERA5_LSM.nc ok
                     iom_close ~~~ close file: ../../../INPUTS/FORCING/ERA5_LSM.
 nc ok
   fld_init : time-interpolation for MTPR read previous record =      1 at time =   -0.02 days

 ===>>> : W A R N I N G
         ===============

 previous year/month/week/day file: ../../../INPUTS/FORCING/ERA5_MSR not present
  -> back to current year/month/week/day
                     iom_nf90_open ~~~ open existing file: ../../../INPUTS/FORCI
 NG/ERA5_MSR_y2017.nc in READ mode
                    ---> ../../../INPUTS/FORCING/ERA5_MSR_y2017.nc OK
           read MSR (rec:      1) in ../../../INPUTS/FORCING/ERA5_MSR_y2017.nc ok
                     iom_nf90_open ~~~ open existing file: ../../../INPUTS/FORCI
 NG/ERA5_LSM.nc in READ mode
                    ---> ../../../INPUTS/FORCING/ERA5_LSM.nc OK
           read LSM (rec:      1) in ../../../INPUTS/FORCING/ERA5_LSM.nc ok
                     iom_close ~~~ close file: ../../../INPUTS/FORCING/ERA5_LSM.
 nc ok
   fld_init : time-interpolation for MSR read previous record =      1 at time =   -0.02 days

 ===>>> : W A R N I N G
         ===============

 previous year/month/week/day file: ../../../INPUTS/FORCING/ERA5_MSL not present
  -> back to current year/month/week/day
                     iom_nf90_open ~~~ open existing file: ../../../INPUTS/FORCI
 NG/ERA5_MSL_y2017.nc in READ mode
                    ---> ../../../INPUTS/FORCING/ERA5_MSL_y2017.nc OK
           read MSL (rec:      1) in ../../../INPUTS/FORCING/ERA5_MSL_y2017.nc ok
   fld_init : time-interpolation for MSL read previous record =      1 at time =   -0.02 days
 weight file:  ../../../INPUTS/FORCING/weights_era5_SANH_bicubic.nc
       ddims:           261         201
      numwgt:            16
      jpiwgt:             7
      jpjwgt:            13
     botleft:           108          58
    topright:           114          70
        not cyclical
        allocated
 weight file:  ../../../INPUTS/FORCING/weights_era5_SANH_bilin.nc
       ddims:           261         201
      numwgt:             4
      jpiwgt:             7
      jpjwgt:            13
     botleft:           108          58
    topright:           114          70
        not cyclical
        allocated
           read U10 (rec:      1) in ../../../INPUTS/FORCING/ERA5_U10_y2017.nc ok
                     iom_nf90_open ~~~ open existing file: ../../../INPUTS/FORCI
 NG/ERA5_LSM.nc in READ mode
                    ---> ../../../INPUTS/FORCING/ERA5_LSM.nc OK
           read LSM (rec:      1) in ../../../INPUTS/FORCING/ERA5_LSM.nc ok
                     iom_close ~~~ close file: ../../../INPUTS/FORCING/ERA5_LSM.
 nc ok
           read V10 (rec:      1) in ../../../INPUTS/FORCING/ERA5_V10_y2017.nc ok
                     iom_nf90_open ~~~ open existing file: ../../../INPUTS/FORCI
 NG/ERA5_LSM.nc in READ mode
                    ---> ../../../INPUTS/FORCING/ERA5_LSM.nc OK
           read LSM (rec:      1) in ../../../INPUTS/FORCING/ERA5_LSM.nc ok
                     iom_close ~~~ close file: ../../../INPUTS/FORCING/ERA5_LSM.
 nc ok
           read T2M (rec:      1) in ../../../INPUTS/FORCING/ERA5_T2M_y2017.nc ok
                     iom_nf90_open ~~~ open existing file: ../../../INPUTS/FORCI
 NG/ERA5_LSM.nc in READ mode
                    ---> ../../../INPUTS/FORCING/ERA5_LSM.nc OK
           read LSM (rec:      1) in ../../../INPUTS/FORCING/ERA5_LSM.nc ok
                     iom_close ~~~ close file: ../../../INPUTS/FORCING/ERA5_LSM.
 nc ok
           read SPH (rec:      1) in ../../../INPUTS/FORCING/ERA5_SPH_y2017.nc ok
                     iom_nf90_open ~~~ open existing file: ../../../INPUTS/FORCI
 NG/ERA5_LSM.nc in READ mode
                    ---> ../../../INPUTS/FORCING/ERA5_LSM.nc OK
           read LSM (rec:      1) in ../../../INPUTS/FORCING/ERA5_LSM.nc ok
                     iom_close ~~~ close file: ../../../INPUTS/FORCING/ERA5_LSM.
 nc ok
           read MSDWSWRF (rec:      1) in ../../../INPUTS/FORCING/ERA5_MSDWSWRF_y2017.nc ok
                     iom_nf90_open ~~~ open existing file: ../../../INPUTS/FORCI
 NG/ERA5_LSM.nc in READ mode
                    ---> ../../../INPUTS/FORCING/ERA5_LSM.nc OK
[...]
 nc ok
           read T2M (rec:    976) in ../../../INPUTS/FORCING/ERA5_T2M_y2017.nc ok
                     iom_nf90_open ~~~ open existing file: ../../../INPUTS/FORCI
 NG/ERA5_LSM.nc in READ mode
                    ---> ../../../INPUTS/FORCING/ERA5_LSM.nc OK
           read LSM (rec:      1) in ../../../INPUTS/FORCING/ERA5_LSM.nc ok
                     iom_close ~~~ close file: ../../../INPUTS/FORCING/ERA5_LSM.
 nc ok
           read SPH (rec:    976) in ../../../INPUTS/FORCING/ERA5_SPH_y2017.nc ok
                     iom_nf90_open ~~~ open existing file: ../../../INPUTS/FORCI
 NG/ERA5_LSM.nc in READ mode
                    ---> ../../../INPUTS/FORCING/ERA5_LSM.nc OK
           read LSM (rec:      1) in ../../../INPUTS/FORCING/ERA5_LSM.nc ok
                     iom_close ~~~ close file: ../../../INPUTS/FORCING/ERA5_LSM.
 nc ok
           read MSDWSWRF (rec:    976) in ../../../INPUTS/FORCING/ERA5_MSDWSWRF_y2017.nc ok
                     iom_nf90_open ~~~ open existing file: ../../../INPUTS/FORCI
 NG/ERA5_LSM.nc in READ mode
                    ---> ../../../INPUTS/FORCING/ERA5_LSM.nc OK
           read LSM (rec:      1) in ../../../INPUTS/FORCING/ERA5_LSM.nc ok
                     iom_close ~~~ close file: ../../../INPUTS/FORCING/ERA5_LSM.
 nc ok
           read MSDWLWRF (rec:    976) in ../../../INPUTS/FORCING/ERA5_MSDWLWRF_y2017.nc ok
                     iom_nf90_open ~~~ open existing file: ../../../INPUTS/FORCI
 NG/ERA5_LSM.nc in READ mode
                    ---> ../../../INPUTS/FORCING/ERA5_LSM.nc OK
           read LSM (rec:      1) in ../../../INPUTS/FORCING/ERA5_LSM.nc ok
                     iom_close ~~~ close file: ../../../INPUTS/FORCING/ERA5_LSM.
 nc ok
           read MTPR (rec:    976) in ../../../INPUTS/FORCING/ERA5_MTPR_y2017.nc ok
                     iom_nf90_open ~~~ open existing file: ../../../INPUTS/FORCI
 NG/ERA5_LSM.nc in READ mode
                    ---> ../../../INPUTS/FORCING/ERA5_LSM.nc OK
           read LSM (rec:      1) in ../../../INPUTS/FORCING/ERA5_LSM.nc ok
                     iom_close ~~~ close file: ../../../INPUTS/FORCING/ERA5_LSM.
 nc ok
           read MSR (rec:    976) in ../../../INPUTS/FORCING/ERA5_MSR_y2017.nc ok
                     iom_nf90_open ~~~ open existing file: ../../../INPUTS/FORCI
 NG/ERA5_LSM.nc in READ mode
                    ---> ../../../INPUTS/FORCING/ERA5_LSM.nc OK
           read LSM (rec:      1) in ../../../INPUTS/FORCING/ERA5_LSM.nc ok
                     iom_close ~~~ close file: ../../../INPUTS/FORCING/ERA5_LSM.
 nc ok
           read MSL (rec:    976) in ../../../INPUTS/FORCING/ERA5_MSL_y2017.nc ok
           read U10 (rec:    977) in ../../../INPUTS/FORCING/ERA5_U10_y2017.nc ok
                     iom_nf90_open ~~~ open existing file: ../../../INPUTS/FORCI
 NG/ERA5_LSM.nc in READ mode
                    ---> ../../../INPUTS/FORCING/ERA5_LSM.nc OK
           read LSM (rec:      1) in ../../../INPUTS/FORCING/ERA5_LSM.nc ok
                     iom_close ~~~ close file: ../../../INPUTS/FORCING/ERA5_LSM.
 nc ok
           read V10 (rec:    977) in ../../../INPUTS/FORCING/ERA5_V10_y2017.nc ok
                     iom_nf90_open ~~~ open existing file: ../../../INPUTS/FORCI
 NG/ERA5_LSM.nc in READ mode
                    ---> ../../../INPUTS/FORCING/ERA5_LSM.nc OK
           read LSM (rec:      1) in ../../../INPUTS/FORCING/ERA5_LSM.nc ok
                     iom_close ~~~ close file: ../../../INPUTS/FORCING/ERA5_LSM.
 nc ok
           read T2M (rec:    977) in ../../../INPUTS/FORCING/ERA5_T2M_y2017.nc ok
                     iom_nf90_open ~~~ open existing file: ../../../INPUTS/FORCI
 NG/ERA5_LSM.nc in READ mode
                    ---> ../../../INPUTS/FORCING/ERA5_LSM.nc OK
           read LSM (rec:      1) in ../../../INPUTS/FORCING/ERA5_LSM.nc ok
                     iom_close ~~~ close file: ../../../INPUTS/FORCING/ERA5_LSM.
 nc ok
           read SPH (rec:    977) in ../../../INPUTS/FORCING/ERA5_SPH_y2017.nc ok
                     iom_nf90_open ~~~ open existing file: ../../../INPUTS/FORCI
 NG/ERA5_LSM.nc in READ mode
                    ---> ../../../INPUTS/FORCING/ERA5_LSM.nc OK
           read LSM (rec:      1) in ../../../INPUTS/FORCING/ERA5_LSM.nc ok
                     iom_close ~~~ close file: ../../../INPUTS/FORCING/ERA5_LSM.
 nc ok
           read MSDWSWRF (rec:    977) in ../../../INPUTS/FORCING/ERA5_MSDWSWRF_y2017.nc ok
                     iom_nf90_open ~~~ open existing file: ../../../INPUTS/FORCI
 NG/ERA5_LSM.nc in READ mode
                    ---> ../../../INPUTS/FORCING/ERA5_LSM.nc OK
           read LSM (rec:      1) in ../../../INPUTS/FORCING/ERA5_LSM.nc ok
                     iom_close ~~~ close file: ../../../INPUTS/FORCING/ERA5_LSM.
 nc ok
           read MSDWLWRF (rec:    977) in ../../../INPUTS/FORCING/ERA5_MSDWLWRF_y2017.nc ok
                     iom_nf90_open ~~~ open existing file: ../../../INPUTS/FORCI
 NG/ERA5_LSM.nc in READ mode
                    ---> ../../../INPUTS/FORCING/ERA5_LSM.nc OK
           read LSM (rec:      1) in ../../../INPUTS/FORCING/ERA5_LSM.nc ok
                     iom_close ~~~ close file: ../../../INPUTS/FORCING/ERA5_LSM.
 nc ok
           read MTPR (rec:    977) in ../../../INPUTS/FORCING/ERA5_MTPR_y2017.nc ok
                     iom_nf90_open ~~~ open existing file: ../../../INPUTS/FORCI
 NG/ERA5_LSM.nc in READ mode
                    ---> ../../../INPUTS/FORCING/ERA5_LSM.nc OK
           read LSM (rec:      1) in ../../../INPUTS/FORCING/ERA5_LSM.nc ok
                     iom_close ~~~ close file: ../../../INPUTS/FORCING/ERA5_LSM.
 nc ok
           read MSR (rec:    977) in ../../../INPUTS/FORCING/ERA5_MSR_y2017.nc ok
                     iom_nf90_open ~~~ open existing file: ../../../INPUTS/FORCI
 NG/ERA5_LSM.nc in READ mode
                    ---> ../../../INPUTS/FORCING/ERA5_LSM.nc OK
           read LSM (rec:      1) in ../../../INPUTS/FORCING/ERA5_LSM.nc ok
                     iom_close ~~~ close file: ../../../INPUTS/FORCING/ERA5_LSM.
 nc ok
           read MSL (rec:    977) in ../../../INPUTS/FORCING/ERA5_MSL_y2017.nc ok
           read U10 (rec:    978) in ../../../INPUTS/FORCING/ERA5_U10_y2017.nc ok
                     iom_nf90_open ~~~ open existing file: ../../../INPUTS/FORCI
 NG/ERA5_LSM.nc in READ mode
                    ---> ../../../INPUTS/FORCING/ERA5_LSM.nc OK
           read LSM (rec:      1) in ../../../INPUTS/FORCING/ERA5_LSM.nc ok
                     iom_close ~~~ close file: ../../../INPUTS/FORCING/ERA5_LSM.
 nc ok
           read V10 (rec:    978) in ../../../INPUTS/FORCING/ERA5_V10_y2017.nc ok
                     iom_nf90_open ~~~ open existing file: ../../../INPUTS/FORCI
 NG/ERA5_LSM.nc in READ mode
                    ---> ../../../INPUTS/FORCING/ERA5_LSM.nc OK
           read LSM (rec:      1) in ../../../INPUTS/FORCING/ERA5_LSM.nc ok
                     iom_close ~~~ close file: ../../../INPUTS/FORCING/ERA5_LSM.
 nc ok
           read T2M (rec:    978) in ../../../INPUTS/FORCING/ERA5_T2M_y2017.nc ok
                     iom_nf90_open ~~~ open existing file: ../../../INPUTS/FORCI
 NG/ERA5_LSM.nc in READ mode
                    ---> ../../../INPUTS/FORCING/ERA5_LSM.nc OK
           read LSM (rec:      1) in ../../../INPUTS/FORCING/ERA5_LSM.nc ok
                     iom_close ~~~ close file: ../../../INPUTS/FORCING/ERA5_LSM.
 nc ok
           read SPH (rec:    978) in ../../../INPUTS/FORCING/ERA5_SPH_y2017.nc ok
                     iom_nf90_open ~~~ open existing file: ../../../INPUTS/FORCI
 NG/ERA5_LSM.nc in READ mode
                    ---> ../../../INPUTS/FORCING/ERA5_LSM.nc OK
           read LSM (rec:      1) in ../../../INPUTS/FORCING/ERA5_LSM.nc ok
                     iom_close ~~~ close file: ../../../INPUTS/FORCING/ERA5_LSM.
 nc ok
           read MSDWSWRF (rec:    978) in ../../../INPUTS/FORCING/ERA5_MSDWSWRF_y2017.nc ok
                     iom_nf90_open ~~~ open existing file: ../../../INPUTS/FORCI
 NG/ERA5_LSM.nc in READ mode
                    ---> ../../../INPUTS/FORCING/ERA5_LSM.nc OK
           read LSM (rec:      1) in ../../../INPUTS/FORCING/ERA5_LSM.nc ok
                     iom_close ~~~ close file: ../../../INPUTS/FORCING/ERA5_LSM.
 nc ok
           read MSDWLWRF (rec:    978) in ../../../INPUTS/FORCING/ERA5_MSDWLWRF_y2017.nc ok
                     iom_nf90_open ~~~ open existing file: ../../../INPUTS/FORCI
 NG/ERA5_LSM.nc in READ mode
                    ---> ../../../INPUTS/FORCING/ERA5_LSM.nc OK
           read LSM (rec:      1) in ../../../INPUTS/FORCING/ERA5_LSM.nc ok
                     iom_close ~~~ close file: ../../../INPUTS/FORCING/ERA5_LSM.
 nc ok
           read MTPR (rec:    978) in ../../../INPUTS/FORCING/ERA5_MTPR_y2017.nc ok
                     iom_nf90_open ~~~ open existing file: ../../../INPUTS/FORCI
 NG/ERA5_LSM.nc in READ mode
                    ---> ../../../INPUTS/FORCING/ERA5_LSM.nc OK
           read LSM (rec:      1) in ../../../INPUTS/FORCING/ERA5_LSM.nc ok
                     iom_close ~~~ close file: ../../../INPUTS/FORCING/ERA5_LSM.
 nc ok
           read MSR (rec:    978) in ../../../INPUTS/FORCING/ERA5_MSR_y2017.nc ok
                     iom_nf90_open ~~~ open existing file: ../../../INPUTS/FORCI
 NG/ERA5_LSM.nc in READ mode
                    ---> ../../../INPUTS/FORCING/ERA5_LSM.nc OK
           read LSM (rec:      1) in ../../../INPUTS/FORCING/ERA5_LSM.nc ok
                     iom_close ~~~ close file: ../../../INPUTS/FORCING/ERA5_LSM.
 nc ok
           read MSL (rec:    978) in ../../../INPUTS/FORCING/ERA5_MSL_y2017.nc ok
           read U10 (rec:    979) in ../../../INPUTS/FORCING/ERA5_U10_y2017.nc ok
                     iom_nf90_open ~~~ open existing file: ../../../INPUTS/FORCI
 NG/ERA5_LSM.nc in READ mode
                    ---> ../../../INPUTS/FORCING/ERA5_LSM.nc OK
           read LSM (rec:      1) in ../../../INPUTS/FORCING/ERA5_LSM.nc ok
                     iom_close ~~~ close file: ../../../INPUTS/FORCING/ERA5_LSM.
 nc ok
           read V10 (rec:    979) in ../../../INPUTS/FORCING/ERA5_V10_y2017.nc ok
                     iom_nf90_open ~~~ open existing file: ../../../INPUTS/FORCI
 NG/ERA5_LSM.nc in READ mode
                    ---> ../../../INPUTS/FORCING/ERA5_LSM.nc OK
           read LSM (rec:      1) in ../../../INPUTS/FORCING/ERA5_LSM.nc ok
                     iom_close ~~~ close file: ../../../INPUTS/FORCING/ERA5_LSM.
 nc ok
           read T2M (rec:    979) in ../../../INPUTS/FORCING/ERA5_T2M_y2017.nc ok
                     iom_nf90_open ~~~ open existing file: ../../../INPUTS/FORCI
 NG/ERA5_LSM.nc in READ mode
                    ---> ../../../INPUTS/FORCING/ERA5_LSM.nc OK
           read LSM (rec:      1) in ../../../INPUTS/FORCING/ERA5_LSM.nc ok
                     iom_close ~~~ close file: ../../../INPUTS/FORCING/ERA5_LSM.
 nc ok
           read SPH (rec:    979) in ../../../INPUTS/FORCING/ERA5_SPH_y2017.nc ok
                     iom_nf90_open ~~~ open existing file: ../../../INPUTS/FORCI
 NG/ERA5_LSM.nc in READ mode
                    ---> ../../../INPUTS/FORCING/ERA5_LSM.nc OK
           read LSM (rec:      1) in ../../../INPUTS/FORCING/ERA5_LSM.nc ok
                     iom_close ~~~ close file: ../../../INPUTS/FORCING/ERA5_LSM.
 nc ok
           read MSDWSWRF (rec:    979) in ../../../INPUTS/FORCING/ERA5_MSDWSWRF_y2017.nc ok
                     iom_nf90_open ~~~ open existing file: ../../../INPUTS/FORCI
 NG/ERA5_LSM.nc in READ mode
                    ---> ../../../INPUTS/FORCING/ERA5_LSM.nc OK
           read LSM (rec:      1) in ../../../INPUTS/FORCING/ERA5_LSM.nc ok
                     iom_close ~~~ close file: ../../../INPUTS/FORCING/ERA5_LSM.
 nc ok
           read MSDWLWRF (rec:    979) in ../../../INPUTS/FORCING/ERA5_MSDWLWRF_y2017.nc ok
                     iom_nf90_open ~~~ open existing file: ../../../INPUTS/FORCI
 NG/ERA5_LSM.nc in READ mode
                    ---> ../../../INPUTS/FORCING/ERA5_LSM.nc OK
           read LSM (rec:      1) in ../../../INPUTS/FORCING/ERA5_LSM.nc ok
                     iom_close ~~~ close file: ../../../INPUTS/FORCING/ERA5_LSM.
 nc ok
           read MTPR (rec:    979) in ../../../INPUTS/FORCING/ERA5_MTPR_y2017.nc ok
                     iom_nf90_open ~~~ open existing file: ../../../INPUTS/FORCI
 NG/ERA5_LSM.nc in READ mode
                    ---> ../../../INPUTS/FORCING/ERA5_LSM.nc OK
           read LSM (rec:      1) in ../../../INPUTS/FORCING/ERA5_LSM.nc ok
                     iom_close ~~~ close file: ../../../INPUTS/FORCING/ERA5_LSM.
 nc ok
           read MSR (rec:    979) in ../../../INPUTS/FORCING/ERA5_MSR_y2017.nc ok
                     iom_nf90_open ~~~ open existing file: ../../../INPUTS/FORCI
 NG/ERA5_LSM.nc in READ mode
                    ---> ../../../INPUTS/FORCING/ERA5_LSM.nc OK
           read LSM (rec:      1) in ../../../INPUTS/FORCING/ERA5_LSM.nc ok
                     iom_close ~~~ close file: ../../../INPUTS/FORCING/ERA5_LSM.
 nc ok
           read MSL (rec:    979) in ../../../INPUTS/FORCING/ERA5_MSL_y2017.nc ok
           read U10 (rec:    980) in ../../../INPUTS/FORCING/ERA5_U10_y2017.nc ok
                     iom_nf90_open ~~~ open existing file: ../../../INPUTS/FORCI
 NG/ERA5_LSM.nc in READ mode
                    ---> ../../../INPUTS/FORCING/ERA5_LSM.nc OK
           read LSM (rec:      1) in ../../../INPUTS/FORCING/ERA5_LSM.nc ok
                     iom_close ~~~ close file: ../../../INPUTS/FORCING/ERA5_LSM.
 nc ok
           read V10 (rec:    980) in ../../../INPUTS/FORCING/ERA5_V10_y2017.nc ok
                     iom_nf90_open ~~~ open existing file: ../../../INPUTS/FORCI
 NG/ERA5_LSM.nc in READ mode
                    ---> ../../../INPUTS/FORCING/ERA5_LSM.nc OK
           read LSM (rec:      1) in ../../../INPUTS/FORCING/ERA5_LSM.nc ok
                     iom_close ~~~ close file: ../../../INPUTS/FORCING/ERA5_LSM.
 nc ok
           read T2M (rec:    980) in ../../../INPUTS/FORCING/ERA5_T2M_y2017.nc ok
                     iom_nf90_open ~~~ open existing file: ../../../INPUTS/FORCI
 NG/ERA5_LSM.nc in READ mode
                    ---> ../../../INPUTS/FORCING/ERA5_LSM.nc OK
           read LSM (rec:      1) in ../../../INPUTS/FORCING/ERA5_LSM.nc ok
                     iom_close ~~~ close file: ../../../INPUTS/FORCING/ERA5_LSM.
 nc ok
           read SPH (rec:    980) in ../../../INPUTS/FORCING/ERA5_SPH_y2017.nc ok
                     iom_nf90_open ~~~ open existing file: ../../../INPUTS/FORCI
 NG/ERA5_LSM.nc in READ mode
                    ---> ../../../INPUTS/FORCING/ERA5_LSM.nc OK
           read LSM (rec:      1) in ../../../INPUTS/FORCING/ERA5_LSM.nc ok
                     iom_close ~~~ close file: ../../../INPUTS/FORCING/ERA5_LSM.
 nc ok
           read MSDWSWRF (rec:    980) in ../../../INPUTS/FORCING/ERA5_MSDWSWRF_y2017.nc ok
                     iom_nf90_open ~~~ open existing file: ../../../INPUTS/FORCI
 NG/ERA5_LSM.nc in READ mode
                    ---> ../../../INPUTS/FORCING/ERA5_LSM.nc OK
           read LSM (rec:      1) in ../../../INPUTS/FORCING/ERA5_LSM.nc ok
                     iom_close ~~~ close file: ../../../INPUTS/FORCING/ERA5_LSM.
 nc ok
           read MSDWLWRF (rec:    980) in ../../../INPUTS/FORCING/ERA5_MSDWLWRF_y2017.nc ok
                     iom_nf90_open ~~~ open existing file: ../../../INPUTS/FORCI
 NG/ERA5_LSM.nc in READ mode
                    ---> ../../../INPUTS/FORCING/ERA5_LSM.nc OK
           read LSM (rec:      1) in ../../../INPUTS/FORCING/ERA5_LSM.nc ok
                     iom_close ~~~ close file: ../../../INPUTS/FORCING/ERA5_LSM.
 nc ok
           read MTPR (rec:    980) in ../../../INPUTS/FORCING/ERA5_MTPR_y2017.nc ok
                     iom_nf90_open ~~~ open existing file: ../../../INPUTS/FORCI
 NG/ERA5_LSM.nc in READ mode
                    ---> ../../../INPUTS/FORCING/ERA5_LSM.nc OK
           read LSM (rec:      1) in ../../../INPUTS/FORCING/ERA5_LSM.nc ok
                     iom_close ~~~ close file: ../../../INPUTS/FORCING/ERA5_LSM.
 nc ok
           read MSR (rec:    980) in ../../../INPUTS/FORCING/ERA5_MSR_y2017.nc ok
                     iom_nf90_open ~~~ open existing file: ../../../INPUTS/FORCI
 NG/ERA5_LSM.nc in READ mode
                    ---> ../../../INPUTS/FORCING/ERA5_LSM.nc OK
           read LSM (rec:      1) in ../../../INPUTS/FORCING/ERA5_LSM.nc ok
                     iom_close ~~~ close file: ../../../INPUTS/FORCING/ERA5_LSM.
 nc ok
           read MSL (rec:    980) in ../../../INPUTS/FORCING/ERA5_MSL_y2017.nc ok
           read U10 (rec:    981) in ../../../INPUTS/FORCING/ERA5_U10_y2017.nc ok
                     iom_nf90_open ~~~ open existing file: ../../../INPUTS/FORCI
 NG/ERA5_LSM.nc in READ mode
                    ---> ../../../INPUTS/FORCING/ERA5_LSM.nc OK
           read LSM (rec:      1) in ../../../INPUTS/FORCING/ERA5_LSM.nc ok
                     iom_close ~~~ close file: ../../../INPUTS/FORCING/ERA5_LSM.
 nc ok
           read V10 (rec:    981) in ../../../INPUTS/FORCING/ERA5_V10_y2017.nc ok
                     iom_nf90_open ~~~ open existing file: ../../../INPUTS/FORCI
 NG/ERA5_LSM.nc in READ mode
                    ---> ../../../INPUTS/FORCING/ERA5_LSM.nc OK
           read LSM (rec:      1) in ../../../INPUTS/FORCING/ERA5_LSM.nc ok
                     iom_close ~~~ close file: ../../../INPUTS/FORCING/ERA5_LSM.
 nc ok
           read T2M (rec:    981) in ../../../INPUTS/FORCING/ERA5_T2M_y2017.nc ok
                     iom_nf90_open ~~~ open existing file: ../../../INPUTS/FORCI
 NG/ERA5_LSM.nc in READ mode
                    ---> ../../../INPUTS/FORCING/ERA5_LSM.nc OK
           read LSM (rec:      1) in ../../../INPUTS/FORCING/ERA5_LSM.nc ok
                     iom_close ~~~ close file: ../../../INPUTS/FORCING/ERA5_LSM.
 nc ok
           read SPH (rec:    981) in ../../../INPUTS/FORCING/ERA5_SPH_y2017.nc ok
                     iom_nf90_open ~~~ open existing file: ../../../INPUTS/FORCI
 NG/ERA5_LSM.nc in READ mode
                    ---> ../../../INPUTS/FORCING/ERA5_LSM.nc OK
           read LSM (rec:      1) in ../../../INPUTS/FORCING/ERA5_LSM.nc ok
                     iom_close ~~~ close file: ../../../INPUTS/FORCING/ERA5_LSM.
 nc ok
           read MSDWSWRF (rec:    981) in ../../../INPUTS/FORCING/ERA5_MSDWSWRF_y2017.nc ok
                     iom_nf90_open ~~~ open existing file: ../../../INPUTS/FORCI
 NG/ERA5_LSM.nc in READ mode
                    ---> ../../../INPUTS/FORCING/ERA5_LSM.nc OK
           read LSM (rec:      1) in ../../../INPUTS/FORCING/ERA5_LSM.nc ok
                     iom_close ~~~ close file: ../../../INPUTS/FORCING/ERA5_LSM.
 nc ok
           read MSDWLWRF (rec:    981) in ../../../INPUTS/FORCING/ERA5_MSDWLWRF_y2017.nc ok
                     iom_nf90_open ~~~ open existing file: ../../../INPUTS/FORCI
 NG/ERA5_LSM.nc in READ mode
                    ---> ../../../INPUTS/FORCING/ERA5_LSM.nc OK
           read LSM (rec:      1) in ../../../INPUTS/FORCING/ERA5_LSM.nc ok
                     iom_close ~~~ close file: ../../../INPUTS/FORCING/ERA5_LSM.
 nc ok
           read MTPR (rec:    981) in ../../../INPUTS/FORCING/ERA5_MTPR_y2017.nc ok
                     iom_nf90_open ~~~ open existing file: ../../../INPUTS/FORCI
 NG/ERA5_LSM.nc in READ mode
                    ---> ../../../INPUTS/FORCING/ERA5_LSM.nc OK
           read LSM (rec:      1) in ../../../INPUTS/FORCING/ERA5_LSM.nc ok
                     iom_close ~~~ close file: ../../../INPUTS/FORCING/ERA5_LSM.
 nc ok
           read MSR (rec:    981) in ../../../INPUTS/FORCING/ERA5_MSR_y2017.nc ok
                     iom_nf90_open ~~~ open existing file: ../../../INPUTS/FORCI
 NG/ERA5_LSM.nc in READ mode
                    ---> ../../../INPUTS/FORCING/ERA5_LSM.nc OK
           read LSM (rec:      1) in ../../../INPUTS/FORCING/ERA5_LSM.nc ok
                     iom_close ~~~ close file: ../../../INPUTS/FORCING/ERA5_LSM.
 nc ok
           read MSL (rec:    981) in ../../../INPUTS/FORCING/ERA5_MSL_y2017.nc ok
